
     RDKit          2D

 13 12  0  0  0  0  0  0  0  0999 V2000
   -1.2990    0.7500    0.0000 F   0  0  0  0  0  0  0  0  0  0  0  0
    0.0000    0.0000    0.0000 C   0  0  0  0  0  0  0  0  0  0  0  0
   -0.0000   -1.5000    0.0000 F   0  0  0  0  0  0  0  0  0  0  0  0
    1.2990    0.7500    0.0000 O   0  0  0  0  0  0  0  0  0  0  0  0
    2.5981   -0.0000    0.0000 C   0  0  0  0  0  0  0  0  0  0  0  0
    1.8481   -1.2990    0.0000 F   0  0  0  0  0  0  0  0  0  0  0  0
    3.3481    1.2990    0.0000 F   0  0  0  0  0  0  0  0  0  0  0  0
    3.8971   -0.7500    0.0000 C   0  0  0  0  0  0  0  0  0  0  0  0
    5.1962   -0.0000    0.0000 F   0  0  0  0  0  0  0  0  0  0  0  0
    3.8971   -2.2500    0.0000 C   0  0  0  0  0  0  0  0  0  0  0  0
    3.8971   -3.7500    0.0000 F   0  0  0  0  0  0  0  0  0  0  0  0
    5.3971   -2.2500    0.0000 F   0  0  0  0  0  0  0  0  0  0  0  0
    2.3971   -2.2500    0.0000 F   0  0  0  0  0  0  0  0  0  0  0  0
  1  2  1  0
  2  3  1  0
  2  4  1  0
  4  5  1  0
  5  6  1  0
  5  7  1  0
  5  8  1  0
  8  9  1  0
  8 10  1  0
 10 11  1  0
 10 12  1  0
 10 13  1  0
M  END
$$$$

     RDKit          2D

 14 14  0  0  0  0  0  0  0  0999 V2000
    3.0000    0.0000    0.0000 O   0  0  0  0  0  0  0  0  0  0  0  0
    1.5000    0.0000    0.0000 C   0  0  0  0  0  0  0  0  0  0  0  0
    0.7500   -1.2990    0.0000 C   0  0  0  0  0  0  0  0  0  0  0  0
   -0.7500   -1.2990    0.0000 C   0  0  0  0  0  0  0  0  0  0  0  0
   -1.5000    0.0000    0.0000 C   0  0  0  0  0  0  0  0  0  0  0  0
   -3.0000    0.0000    0.0000 O   0  0  0  0  0  0  0  0  0  0  0  0
   -3.7500    1.2990    0.0000 C   0  0  0  0  0  0  0  0  0  0  0  0
   -2.4510    2.0490    0.0000 F   0  0  0  0  0  0  0  0  0  0  0  0
   -5.0490    0.5490    0.0000 F   0  0  0  0  0  0  0  0  0  0  0  0
   -4.5000    2.5981    0.0000 C   0  0  0  0  0  0  0  0  0  0  0  0
   -3.7500    3.8971    0.0000 F   0  0  0  0  0  0  0  0  0  0  0  0
   -6.0000    2.5981    0.0000 F   0  0  0  0  0  0  0  0  0  0  0  0
   -0.7500    1.2990    0.0000 C   0  0  0  0  0  0  0  0  0  0  0  0
    0.7500    1.2990    0.0000 C   0  0  0  0  0  0  0  0  0  0  0  0
  1  2  1  0
  2  3  2  0
  3  4  1  0
  4  5  2  0
  5  6  1  0
  6  7  1  0
  7  8  1  0
  7  9  1  0
  7 10  1  0
 10 11  1  0
 10 12  1  0
  5 13  1  0
 13 14  2  0
 14  2  1  0
M  END
$$$$

     RDKit          2D

 13 12  0  0  0  0  0  0  0  0999 V2000
   -1.2990    0.7500    0.0000 F   0  0  0  0  0  0  0  0  0  0  0  0
    0.0000    0.0000    0.0000 C   0  0  0  0  0  0  0  0  0  0  0  0
   -0.0000   -1.5000    0.0000 Cl  0  0  0  0  0  0  0  0  0  0  0  0
    1.2990    0.7500    0.0000 O   0  0  0  0  0  0  0  0  0  0  0  0
    2.5981   -0.0000    0.0000 C   0  0  0  0  0  0  0  0  0  0  0  0
    1.8481   -1.2990    0.0000 F   0  0  0  0  0  0  0  0  0  0  0  0
    3.3481    1.2990    0.0000 F   0  0  0  0  0  0  0  0  0  0  0  0
    3.8971   -0.7500    0.0000 C   0  0  0  0  0  0  0  0  0  0  0  0
    5.1962   -0.0000    0.0000 F   0  0  0  0  0  0  0  0  0  0  0  0
    3.8971   -2.2500    0.0000 C   0  0  0  0  0  0  0  0  0  0  0  0
    3.8971   -3.7500    0.0000 F   0  0  0  0  0  0  0  0  0  0  0  0
    5.3971   -2.2500    0.0000 F   0  0  0  0  0  0  0  0  0  0  0  0
    2.3971   -2.2500    0.0000 F   0  0  0  0  0  0  0  0  0  0  0  0
  1  2  1  0
  2  3  1  0
  2  4  1  0
  4  5  1  0
  5  6  1  0
  5  7  1  0
  5  8  1  0
  8  9  1  0
  8 10  1  0
 10 11  1  0
 10 12  1  0
 10 13  1  0
M  END
$$$$

     RDKit          2D

 12 11  0  0  0  0  0  0  0  0999 V2000
   -0.2010    3.3481    0.0000 F   0  0  0  0  0  0  0  0  0  0  0  0
    0.5490    2.0490    0.0000 C   0  0  0  0  0  0  0  0  0  0  0  0
    1.8481    2.7990    0.0000 F   0  0  0  0  0  0  0  0  0  0  0  0
   -0.7500    1.2990    0.0000 F   0  0  0  0  0  0  0  0  0  0  0  0
    1.2990    0.7500    0.0000 C   0  0  0  0  0  0  0  0  0  0  0  0
    2.5981    1.5000    0.0000 Br  0  0  0  0  0  0  0  0  0  0  0  0
   -0.0000    0.0000    0.0000 C   0  0  0  0  0  0  0  0  0  0  0  0
   -0.1828   -1.4888    0.0000 Cl  0  0  0  0  0  0  0  0  0  0  0  0
    2.0490   -0.5490    0.0000 C   0  0  0  0  0  0  0  0  0  0  0  0
    2.7990   -1.8481    0.0000 F   0  0  0  0  0  0  0  0  0  0  0  0
    0.8511   -1.4518    0.0000 F   0  0  0  0  0  0  0  0  0  0  0  0
    3.3481    0.2010    0.0000 F   0  0  0  0  0  0  0  0  0  0  0  0
  1  2  1  0
  2  3  1  0
  2  4  1  0
  2  5  1  0
  5  6  1  0
  5  7  1  0
  7  8  1  0
  5  9  1  0
  9 10  1  0
  9 11  1  0
  9 12  1  0
M  END
$$$$

     RDKit          2D

 28 27  0  0  0  0  0  0  0  0999 V2000
   11.6913    6.7500    0.0000 F   0  0  0  0  0  0  0  0  0  0  0  0
   10.3923    6.0000    0.0000 C   0  0  0  0  0  0  0  0  0  0  0  0
    9.6423    7.2990    0.0000 F   0  0  0  0  0  0  0  0  0  0  0  0
   11.1423    4.7010    0.0000 F   0  0  0  0  0  0  0  0  0  0  0  0
    9.0933    5.2500    0.0000 C   0  0  0  0  0  0  0  0  0  0  0  0
    9.8433    3.9510    0.0000 F   0  0  0  0  0  0  0  0  0  0  0  0
    8.3433    6.5490    0.0000 F   0  0  0  0  0  0  0  0  0  0  0  0
    7.7942    4.5000    0.0000 C   0  0  0  0  0  0  0  0  0  0  0  0
    7.0442    5.7990    0.0000 F   0  0  0  0  0  0  0  0  0  0  0  0
    8.5442    3.2010    0.0000 F   0  0  0  0  0  0  0  0  0  0  0  0
    6.4952    3.7500    0.0000 C   0  0  0  0  0  0  0  0  0  0  0  0
    7.2452    2.4510    0.0000 F   0  0  0  0  0  0  0  0  0  0  0  0
    5.7452    5.0490    0.0000 F   0  0  0  0  0  0  0  0  0  0  0  0
    5.1962    3.0000    0.0000 C   0  0  0  0  0  0  0  0  0  0  0  0
    4.4462    4.2990    0.0000 F   0  0  0  0  0  0  0  0  0  0  0  0
    5.9462    1.7010    0.0000 F   0  0  0  0  0  0  0  0  0  0  0  0
    3.8971    2.2500    0.0000 C   0  0  0  0  0  0  0  0  0  0  0  0
    4.6471    0.9510    0.0000 F   0  0  0  0  0  0  0  0  0  0  0  0
    3.1471    3.5490    0.0000 F   0  0  0  0  0  0  0  0  0  0  0  0
    2.5981    1.5000    0.0000 C   0  0  0  0  0  0  0  0  0  0  0  0
    1.8481    2.7990    0.0000 F   0  0  0  0  0  0  0  0  0  0  0  0
    3.3481    0.2010    0.0000 F   0  0  0  0  0  0  0  0  0  0  0  0
    1.2990    0.7500    0.0000 C   0  0  0  0  0  0  0  0  0  0  0  0
    2.0490   -0.5490    0.0000 F   0  0  0  0  0  0  0  0  0  0  0  0
    0.5490    2.0490    0.0000 F   0  0  0  0  0  0  0  0  0  0  0  0
    0.0000    0.0000    0.0000 C   0  0  0  0  0  0  0  0  0  0  0  0
   -1.2990    0.7500    0.0000 C   0  0  0  0  0  0  0  0  0  0  0  0
   -2.5981    0.0000    0.0000 Br  0  0  0  0  0  0  0  0  0  0  0  0
  1  2  1  0
  2  3  1  0
  2  4  1  0
  2  5  1  0
  5  6  1  0
  5  7  1  0
  5  8  1  0
  8  9  1  0
  8 10  1  0
  8 11  1  0
 11 12  1  0
 11 13  1  0
 11 14  1  0
 14 15  1  0
 14 16  1  0
 14 17  1  0
 17 18  1  0
 17 19  1  0
 17 20  1  0
 20 21  1  0
 20 22  1  0
 20 23  1  0
 23 24  1  0
 23 25  1  0
 23 26  1  0
 26 27  1  0
 27 28  1  0
M  END
$$$$

     RDKit          2D

 15 14  0  0  0  0  0  0  0  0999 V2000
   -1.2990    0.7500    0.0000 O   0  0  0  0  0  0  0  0  0  0  0  0
    0.0000    0.0000    0.0000 C   0  0  0  0  0  0  0  0  0  0  0  0
    1.2990    0.7500    0.0000 C   0  0  0  0  0  0  0  0  0  0  0  0
    1.2990    2.2500    0.0000 O   0  0  0  0  0  0  0  0  0  0  0  0
    2.5981   -0.0000    0.0000 C   0  0  0  0  0  0  0  0  0  0  0  0
    3.8971    0.7500    0.0000 C   0  0  0  0  0  0  0  0  0  0  0  0
    4.6471   -0.5490    0.0000 F   0  0  0  0  0  0  0  0  0  0  0  0
    3.1471    2.0490    0.0000 F   0  0  0  0  0  0  0  0  0  0  0  0
    5.1962    1.5000    0.0000 C   0  0  0  0  0  0  0  0  0  0  0  0
    4.4462    2.7990    0.0000 F   0  0  0  0  0  0  0  0  0  0  0  0
    5.9462    0.2010    0.0000 F   0  0  0  0  0  0  0  0  0  0  0  0
    6.4952    2.2500    0.0000 C   0  0  0  0  0  0  0  0  0  0  0  0
    7.7942    3.0000    0.0000 F   0  0  0  0  0  0  0  0  0  0  0  0
    7.2452    0.9510    0.0000 F   0  0  0  0  0  0  0  0  0  0  0  0
    5.7452    3.5490    0.0000 F   0  0  0  0  0  0  0  0  0  0  0  0
  1  2  1  0
  2  3  1  0
  3  4  1  0
  3  5  1  0
  5  6  1  0
  6  7  1  0
  6  8  1  0
  6  9  1  0
  9 10  1  0
  9 11  1  0
  9 12  1  0
 12 13  1  0
 12 14  1  0
 12 15  1  0
M  END
$$$$

     RDKit          2D

 18 17  0  0  0  0  0  0  0  0999 V2000
   -0.0000   -1.5000    0.0000 O   0  0  0  0  0  0  0  0  0  0  0  0
    0.0000    0.0000    0.0000 C   0  0  0  0  0  0  0  0  0  0  0  0
   -1.2990    0.7500    0.0000 O   0  0  0  0  0  0  0  0  0  0  0  0
    1.2990    0.7500    0.0000 C   0  0  0  0  0  0  0  0  0  0  0  0
    2.0490   -0.5490    0.0000 F   0  0  0  0  0  0  0  0  0  0  0  0
    0.5490    2.0490    0.0000 F   0  0  0  0  0  0  0  0  0  0  0  0
    2.5981    1.5000    0.0000 O   0  0  0  0  0  0  0  0  0  0  0  0
    2.5981    3.0000    0.0000 C   0  0  0  0  0  0  0  0  0  0  0  0
    1.0981    3.0000    0.0000 F   0  0  0  0  0  0  0  0  0  0  0  0
    4.0981    3.0000    0.0000 F   0  0  0  0  0  0  0  0  0  0  0  0
    2.5981    4.5000    0.0000 C   0  0  0  0  0  0  0  0  0  0  0  0
    1.0981    4.5000    0.0000 F   0  0  0  0  0  0  0  0  0  0  0  0
    4.0981    4.5000    0.0000 F   0  0  0  0  0  0  0  0  0  0  0  0
    2.5981    6.0000    0.0000 O   0  0  0  0  0  0  0  0  0  0  0  0
    3.8971    6.7500    0.0000 C   0  0  0  0  0  0  0  0  0  0  0  0
    5.1962    7.5000    0.0000 F   0  0  0  0  0  0  0  0  0  0  0  0
    3.1471    8.0490    0.0000 F   0  0  0  0  0  0  0  0  0  0  0  0
    4.6471    5.4510    0.0000 F   0  0  0  0  0  0  0  0  0  0  0  0
  1  2  2  0
  2  3  1  0
  2  4  1  0
  4  5  1  0
  4  6  1  0
  4  7  1  0
  7  8  1  0
  8  9  1  0
  8 10  1  0
  8 11  1  0
 11 12  1  0
 11 13  1  0
 11 14  1  0
 14 15  1  0
 15 16  1  0
 15 17  1  0
 15 18  1  0
M  END
$$$$

     RDKit          2D

 31 30  0  0  0  0  0  0  0  0999 V2000
   -1.2990    0.7500    0.0000 N   0  0  0  0  0  0  0  0  0  0  0  0
    0.0000    0.0000    0.0000 C   0  0  0  0  0  0  0  0  0  0  0  0
   -0.0000   -1.5000    0.0000 O   0  0  0  0  0  0  0  0  0  0  0  0
    1.2990    0.7500    0.0000 C   0  0  0  0  0  0  0  0  0  0  0  0
    2.0490   -0.5490    0.0000 F   0  0  0  0  0  0  0  0  0  0  0  0
    0.5490    2.0490    0.0000 F   0  0  0  0  0  0  0  0  0  0  0  0
    2.5981    1.5000    0.0000 C   0  0  0  0  0  0  0  0  0  0  0  0
    1.8481    2.7990    0.0000 F   0  0  0  0  0  0  0  0  0  0  0  0
    3.3481    0.2010    0.0000 F   0  0  0  0  0  0  0  0  0  0  0  0
    3.8971    2.2500    0.0000 C   0  0  0  0  0  0  0  0  0  0  0  0
    4.6471    0.9510    0.0000 F   0  0  0  0  0  0  0  0  0  0  0  0
    3.1471    3.5490    0.0000 F   0  0  0  0  0  0  0  0  0  0  0  0
    5.1962    3.0000    0.0000 C   0  0  0  0  0  0  0  0  0  0  0  0
    4.4462    4.2990    0.0000 F   0  0  0  0  0  0  0  0  0  0  0  0
    5.9462    1.7010    0.0000 F   0  0  0  0  0  0  0  0  0  0  0  0
    6.4952    3.7500    0.0000 C   0  0  0  0  0  0  0  0  0  0  0  0
    7.2452    2.4510    0.0000 F   0  0  0  0  0  0  0  0  0  0  0  0
    5.7452    5.0490    0.0000 F   0  0  0  0  0  0  0  0  0  0  0  0
    7.7942    4.5000    0.0000 C   0  0  0  0  0  0  0  0  0  0  0  0
    7.0442    5.7990    0.0000 F   0  0  0  0  0  0  0  0  0  0  0  0
    8.5442    3.2010    0.0000 F   0  0  0  0  0  0  0  0  0  0  0  0
    9.0933    5.2500    0.0000 C   0  0  0  0  0  0  0  0  0  0  0  0
    9.8433    3.9510    0.0000 F   0  0  0  0  0  0  0  0  0  0  0  0
    8.3433    6.5490    0.0000 F   0  0  0  0  0  0  0  0  0  0  0  0
   10.3923    6.0000    0.0000 C   0  0  0  0  0  0  0  0  0  0  0  0
    9.6423    7.2990    0.0000 F   0  0  0  0  0  0  0  0  0  0  0  0
   11.1423    4.7010    0.0000 F   0  0  0  0  0  0  0  0  0  0  0  0
   11.6913    6.7500    0.0000 C   0  0  0  0  0  0  0  0  0  0  0  0
   12.9904    7.5000    0.0000 F   0  0  0  0  0  0  0  0  0  0  0  0
   12.4413    5.4510    0.0000 F   0  0  0  0  0  0  0  0  0  0  0  0
   10.9413    8.0490    0.0000 F   0  0  0  0  0  0  0  0  0  0  0  0
  1  2  1  0
  2  3  2  0
  2  4  1  0
  4  5  1  0
  4  6  1  0
  4  7  1  0
  7  8  1  0
  7  9  1  0
  7 10  1  0
 10 11  1  0
 10 12  1  0
 10 13  1  0
 13 14  1  0
 13 15  1  0
 13 16  1  0
 16 17  1  0
 16 18  1  0
 16 19  1  0
 19 20  1  0
 19 21  1  0
 19 22  1  0
 22 23  1  0
 22 24  1  0
 22 25  1  0
 25 26  1  0
 25 27  1  0
 25 28  1  0
 28 29  1  0
 28 30  1  0
 28 31  1  0
M  END
$$$$

     RDKit          2D

 28 27  0  0  0  0  0  0  0  0999 V2000
   -0.0000   -1.5000    0.0000 O   0  0  0  0  0  0  0  0  0  0  0  0
    0.0000    0.0000    0.0000 C   0  0  0  0  0  0  0  0  0  0  0  0
   -1.2990    0.7500    0.0000 O   0  0  0  0  0  0  0  0  0  0  0  0
    1.2990    0.7500    0.0000 C   0  0  0  0  0  0  0  0  0  0  0  0
    2.0490   -0.5490    0.0000 F   0  0  0  0  0  0  0  0  0  0  0  0
    0.5490    2.0490    0.0000 F   0  0  0  0  0  0  0  0  0  0  0  0
    2.5981    1.5000    0.0000 C   0  0  0  0  0  0  0  0  0  0  0  0
    1.8481    2.7990    0.0000 F   0  0  0  0  0  0  0  0  0  0  0  0
    3.3481    0.2010    0.0000 F   0  0  0  0  0  0  0  0  0  0  0  0
    3.8971    2.2500    0.0000 C   0  0  0  0  0  0  0  0  0  0  0  0
    4.6471    0.9510    0.0000 F   0  0  0  0  0  0  0  0  0  0  0  0
    3.1471    3.5490    0.0000 F   0  0  0  0  0  0  0  0  0  0  0  0
    5.1962    3.0000    0.0000 C   0  0  0  0  0  0  0  0  0  0  0  0
    4.4462    4.2990    0.0000 F   0  0  0  0  0  0  0  0  0  0  0  0
    5.9462    1.7010    0.0000 F   0  0  0  0  0  0  0  0  0  0  0  0
    6.4952    3.7500    0.0000 C   0  0  0  0  0  0  0  0  0  0  0  0
    7.2452    2.4510    0.0000 F   0  0  0  0  0  0  0  0  0  0  0  0
    5.7452    5.0490    0.0000 F   0  0  0  0  0  0  0  0  0  0  0  0
    7.7942    4.5000    0.0000 C   0  0  0  0  0  0  0  0  0  0  0  0
    7.0442    5.7990    0.0000 F   0  0  0  0  0  0  0  0  0  0  0  0
    8.5442    3.2010    0.0000 F   0  0  0  0  0  0  0  0  0  0  0  0
    9.0933    5.2500    0.0000 C   0  0  0  0  0  0  0  0  0  0  0  0
    9.8433    3.9510    0.0000 F   0  0  0  0  0  0  0  0  0  0  0  0
    8.3433    6.5490    0.0000 F   0  0  0  0  0  0  0  0  0  0  0  0
   10.3923    6.0000    0.0000 C   0  0  0  0  0  0  0  0  0  0  0  0
   11.6913    6.7500    0.0000 F   0  0  0  0  0  0  0  0  0  0  0  0
    9.6423    7.2990    0.0000 F   0  0  0  0  0  0  0  0  0  0  0  0
   11.1423    4.7010    0.0000 Cl  0  0  0  0  0  0  0  0  0  0  0  0
  1  2  2  0
  2  3  1  0
  2  4  1  0
  4  5  1  0
  4  6  1  0
  4  7  1  0
  7  8  1  0
  7  9  1  0
  7 10  1  0
 10 11  1  0
 10 12  1  0
 10 13  1  0
 13 14  1  0
 13 15  1  0
 13 16  1  0
 16 17  1  0
 16 18  1  0
 16 19  1  0
 19 20  1  0
 19 21  1  0
 19 22  1  0
 22 23  1  0
 22 24  1  0
 22 25  1  0
 25 26  1  0
 25 27  1  0
 25 28  1  0
M  END
$$$$

     RDKit          2D

 16 15  0  0  0  0  0  0  0  0999 V2000
   -1.2990    0.7500    0.0000 O   0  0  0  0  0  0  0  0  0  0  0  0
    0.0000    0.0000    0.0000 C   0  0  0  0  0  0  0  0  0  0  0  0
   -0.0000   -1.5000    0.0000 F   0  0  0  0  0  0  0  0  0  0  0  0
    1.2990    0.7500    0.0000 C   0  0  0  0  0  0  0  0  0  0  0  0
    2.0490   -0.5490    0.0000 F   0  0  0  0  0  0  0  0  0  0  0  0
    0.5490    2.0490    0.0000 F   0  0  0  0  0  0  0  0  0  0  0  0
    2.5981    1.5000    0.0000 C   0  0  0  0  0  0  0  0  0  0  0  0
    1.8481    2.7990    0.0000 F   0  0  0  0  0  0  0  0  0  0  0  0
    3.3481    0.2010    0.0000 F   0  0  0  0  0  0  0  0  0  0  0  0
    3.8971    2.2500    0.0000 C   0  0  0  0  0  0  0  0  0  0  0  0
    4.6471    0.9510    0.0000 F   0  0  0  0  0  0  0  0  0  0  0  0
    3.1471    3.5490    0.0000 F   0  0  0  0  0  0  0  0  0  0  0  0
    5.1962    3.0000    0.0000 C   0  0  0  0  0  0  0  0  0  0  0  0
    6.4952    3.7500    0.0000 F   0  0  0  0  0  0  0  0  0  0  0  0
    4.4462    4.2990    0.0000 F   0  0  0  0  0  0  0  0  0  0  0  0
    5.9462    1.7010    0.0000 Cl  0  0  0  0  0  0  0  0  0  0  0  0
  1  2  2  0
  2  3  1  0
  2  4  1  0
  4  5  1  0
  4  6  1  0
  4  7  1  0
  7  8  1  0
  7  9  1  0
  7 10  1  0
 10 11  1  0
 10 12  1  0
 10 13  1  0
 13 14  1  0
 13 15  1  0
 13 16  1  0
M  END
$$$$

     RDKit          2D

 20 19  0  0  0  0  0  0  0  0999 V2000
   -1.2990    0.7500    0.0000 O   0  0  0  0  0  0  0  0  0  0  0  0
    0.0000    0.0000    0.0000 C   0  0  0  0  0  0  0  0  0  0  0  0
    1.2990    0.7500    0.0000 C   0  0  0  0  0  0  0  0  0  0  0  0
    0.5490    2.0490    0.0000 F   0  0  0  0  0  0  0  0  0  0  0  0
    2.5981    1.5000    0.0000 C   0  0  0  0  0  0  0  0  0  0  0  0
    3.6503    0.8925    0.0000 F   0  0  0  0  0  0  0  0  0  0  0  0
    2.5981    3.0000    0.0000 C   0  0  0  0  0  0  0  0  0  0  0  0
    1.0981    3.0000    0.0000 F   0  0  0  0  0  0  0  0  0  0  0  0
    2.5981    4.5000    0.0000 C   0  0  0  0  0  0  0  0  0  0  0  0
    2.5981    6.0000    0.0000 F   0  0  0  0  0  0  0  0  0  0  0  0
    1.0981    4.5000    0.0000 F   0  0  0  0  0  0  0  0  0  0  0  0
    3.4772    4.6080    0.0000 F   0  0  0  0  0  0  0  0  0  0  0  0
    4.0981    3.0000    0.0000 C   0  0  0  0  0  0  0  0  0  0  0  0
    5.5981    3.0000    0.0000 F   0  0  0  0  0  0  0  0  0  0  0  0
    4.2060    3.8791    0.0000 F   0  0  0  0  0  0  0  0  0  0  0  0
    4.2626    1.6601    0.0000 F   0  0  0  0  0  0  0  0  0  0  0  0
    2.0490   -0.5490    0.0000 C   0  0  0  0  0  0  0  0  0  0  0  0
    2.7990   -1.8481    0.0000 F   0  0  0  0  0  0  0  0  0  0  0  0
    3.2917   -0.0216    0.0000 F   0  0  0  0  0  0  0  0  0  0  0  0
    0.7500   -1.2990    0.0000 F   0  0  0  0  0  0  0  0  0  0  0  0
  1  2  1  0
  2  3  1  0
  3  4  1  0
  3  5  1  0
  5  6  1  0
  5  7  1  0
  7  8  1  0
  7  9  1  0
  9 10  1  0
  9 11  1  0
  9 12  1  0
  7 13  1  0
 13 14  1  0
 13 15  1  0
 13 16  1  0
  3 17  1  0
 17 18  1  0
 17 19  1  0
 17 20  1  0
M  END
$$$$

     RDKit          2D

  9  8  0  0  0  0  0  0  0  0999 V2000
    0.0000    0.0000    0.0000 C   0  0  0  0  0  0  0  0  0  0  0  0
    1.2990    0.7500    0.0000 C   0  0  0  0  0  0  0  0  0  0  0  0
    1.2990    2.2500    0.0000 O   0  0  0  0  0  0  0  0  0  0  0  0
    2.5981   -0.0000    0.0000 C   0  0  0  0  0  0  0  0  0  0  0  0
    3.3481    1.2990    0.0000 F   0  0  0  0  0  0  0  0  0  0  0  0
    1.8481   -1.2990    0.0000 F   0  0  0  0  0  0  0  0  0  0  0  0
    3.8971   -0.7500    0.0000 C   0  0  0  0  0  0  0  0  0  0  0  0
    3.8971   -2.2500    0.0000 F   0  0  0  0  0  0  0  0  0  0  0  0
    5.1962   -0.0000    0.0000 F   0  0  0  0  0  0  0  0  0  0  0  0
  1  2  1  0
  2  3  2  0
  2  4  1  0
  4  5  1  0
  4  6  1  0
  4  7  1  0
  7  8  1  0
  7  9  1  0
M  END
$$$$

     RDKit          2D

 25 24  0  0  0  0  0  0  0  0999 V2000
    2.5981    3.0000    0.0000 O   0  0  0  0  0  0  0  0  0  0  0  0
    2.5981    1.5000    0.0000 C   0  0  0  0  0  0  0  0  0  0  0  0
    1.2990    0.7500    0.0000 C   0  0  0  0  0  0  0  0  0  0  0  0
    0.5490    2.0490    0.0000 F   0  0  0  0  0  0  0  0  0  0  0  0
    2.0490   -0.5490    0.0000 O   0  0  0  0  0  0  0  0  0  0  0  0
    3.5490   -0.5490    0.0000 C   0  0  0  0  0  0  0  0  0  0  0  0
    3.5490    0.9510    0.0000 F   0  0  0  0  0  0  0  0  0  0  0  0
    3.5490   -2.0490    0.0000 F   0  0  0  0  0  0  0  0  0  0  0  0
    5.0490   -0.5490    0.0000 C   0  0  0  0  0  0  0  0  0  0  0  0
    5.0490    0.9510    0.0000 F   0  0  0  0  0  0  0  0  0  0  0  0
    5.0490   -2.0490    0.0000 F   0  0  0  0  0  0  0  0  0  0  0  0
    6.5490   -0.5490    0.0000 C   0  0  0  0  0  0  0  0  0  0  0  0
    6.5490    0.9510    0.0000 F   0  0  0  0  0  0  0  0  0  0  0  0
    6.5490   -2.0490    0.0000 F   0  0  0  0  0  0  0  0  0  0  0  0
    8.0490   -0.5490    0.0000 C   0  0  0  0  0  0  0  0  0  0  0  0
    8.0490   -2.0490    0.0000 F   0  0  0  0  0  0  0  0  0  0  0  0
    8.0490    0.9510    0.0000 F   0  0  0  0  0  0  0  0  0  0  0  0
    9.5490   -0.5490    0.0000 C   0  0  0  0  0  0  0  0  0  0  0  0
   11.0490   -0.5490    0.0000 F   0  0  0  0  0  0  0  0  0  0  0  0
    9.5490    0.9510    0.0000 F   0  0  0  0  0  0  0  0  0  0  0  0
    9.5490   -2.0490    0.0000 F   0  0  0  0  0  0  0  0  0  0  0  0
    0.0000    0.0000    0.0000 C   0  0  0  0  0  0  0  0  0  0  0  0
   -1.2990   -0.7500    0.0000 F   0  0  0  0  0  0  0  0  0  0  0  0
   -0.7500    1.2990    0.0000 F   0  0  0  0  0  0  0  0  0  0  0  0
    0.7500   -1.2990    0.0000 F   0  0  0  0  0  0  0  0  0  0  0  0
  1  2  1  0
  2  3  1  0
  3  4  1  0
  3  5  1  0
  5  6  1  0
  6  7  1  0
  6  8  1  0
  6  9  1  0
  9 10  1  0
  9 11  1  0
  9 12  1  0
 12 13  1  0
 12 14  1  0
 12 15  1  0
 15 16  1  0
 15 17  1  0
 15 18  1  0
 18 19  1  0
 18 20  1  0
 18 21  1  0
  3 22  1  0
 22 23  1  0
 22 24  1  0
 22 25  1  0
M  END
$$$$

     RDKit          2D

 22 24  0  0  0  0  0  0  0  0999 V2000
   -0.7500   -6.4952    0.0000 O   0  0  0  0  0  0  0  0  0  0  0  0
   -1.5000   -5.1962    0.0000 C   0  0  0  0  0  0  0  0  0  0  0  0
   -3.0000   -5.1962    0.0000 C   0  0  0  0  0  0  0  0  0  0  0  0
   -3.7500   -3.8971    0.0000 C   0  0  0  0  0  0  0  0  0  0  0  0
   -4.8991   -2.9329    0.0000 O   0  0  0  0  0  0  0  0  0  0  0  0
   -4.8991   -4.8613    0.0000 C   0  0  0  0  0  0  0  0  0  0  0  0
   -5.8632   -3.7122    0.0000 F   0  0  0  0  0  0  0  0  0  0  0  0
   -3.9349   -6.0104    0.0000 F   0  0  0  0  0  0  0  0  0  0  0  0
   -6.0481   -5.8255    0.0000 C   0  0  0  0  0  0  0  0  0  0  0  0
   -5.7877   -7.3027    0.0000 F   0  0  0  0  0  0  0  0  0  0  0  0
   -7.4577   -5.3124    0.0000 F   0  0  0  0  0  0  0  0  0  0  0  0
   -3.0000   -2.5981    0.0000 O   0  0  0  0  0  0  0  0  0  0  0  0
   -1.5000   -2.5981    0.0000 C   0  0  0  0  0  0  0  0  0  0  0  0
   -0.7500   -3.8971    0.0000 C   0  0  0  0  0  0  0  0  0  0  0  0
    0.7500   -3.8971    0.0000 C   0  0  0  0  0  0  0  0  0  0  0  0
    1.5000   -2.5981    0.0000 C   0  0  0  0  0  0  0  0  0  0  0  0
    0.7500   -1.2990    0.0000 C   0  0  0  0  0  0  0  0  0  0  0  0
    1.5000    0.0000    0.0000 C   0  0  0  0  0  0  0  0  0  0  0  0
    0.7500    1.2990    0.0000 C   0  0  0  0  0  0  0  0  0  0  0  0
   -0.7500    1.2990    0.0000 C   0  0  0  0  0  0  0  0  0  0  0  0
   -1.5000    0.0000    0.0000 C   0  0  0  0  0  0  0  0  0  0  0  0
   -0.7500   -1.2990    0.0000 C   0  0  0  0  0  0  0  0  0  0  0  0
  1  2  2  0
  2  3  1  0
  3  4  1  0
  4  5  1  0
  4  6  1  0
  6  7  1  0
  6  8  1  0
  6  9  1  0
  9 10  1  0
  9 11  1  0
  4 12  1  0
 12 13  1  0
 13 14  2  0
 14 15  1  0
 15 16  2  0
 16 17  1  0
 17 18  2  0
 18 19  1  0
 19 20  2  0
 20 21  1  0
 21 22  2  0
 14  2  1  0
 22 17  1  0
 22 13  1  0
M  END
$$$$

     RDKit          2D

 29 28  0  0  0  0  0  0  0  0999 V2000
    0.0000   -3.0000    0.0000 N   0  0  0  0  0  0  0  0  0  0  0  0
    0.0000   -1.5000    0.0000 S   0  0  0  0  0  0  0  0  0  0  0  0
   -1.5000   -1.5000    0.0000 O   0  0  0  0  0  0  0  0  0  0  0  0
    0.7912   -1.5972    0.0000 O   0  0  0  0  0  0  0  0  0  0  0  0
    0.0000    0.0000    0.0000 C   0  0  0  0  0  0  0  0  0  0  0  0
   -1.5000    0.0000    0.0000 F   0  0  0  0  0  0  0  0  0  0  0  0
    0.0000    1.5000    0.0000 F   0  0  0  0  0  0  0  0  0  0  0  0
    1.5000    0.0000    0.0000 C   0  0  0  0  0  0  0  0  0  0  0  0
    1.5000    1.5000    0.0000 F   0  0  0  0  0  0  0  0  0  0  0  0
    1.6080   -0.8791    0.0000 F   0  0  0  0  0  0  0  0  0  0  0  0
    3.0000    0.0000    0.0000 C   0  0  0  0  0  0  0  0  0  0  0  0
    3.0000   -1.5000    0.0000 F   0  0  0  0  0  0  0  0  0  0  0  0
    3.0000    1.5000    0.0000 F   0  0  0  0  0  0  0  0  0  0  0  0
    4.5000    0.0000    0.0000 C   0  0  0  0  0  0  0  0  0  0  0  0
    4.5000    1.5000    0.0000 F   0  0  0  0  0  0  0  0  0  0  0  0
    4.5000   -1.5000    0.0000 F   0  0  0  0  0  0  0  0  0  0  0  0
    6.0000    0.0000    0.0000 C   0  0  0  0  0  0  0  0  0  0  0  0
    6.0000    1.5000    0.0000 F   0  0  0  0  0  0  0  0  0  0  0  0
    6.0000   -1.5000    0.0000 F   0  0  0  0  0  0  0  0  0  0  0  0
    7.5000    0.0000    0.0000 C   0  0  0  0  0  0  0  0  0  0  0  0
    7.5000   -1.5000    0.0000 F   0  0  0  0  0  0  0  0  0  0  0  0
    7.5000    1.5000    0.0000 F   0  0  0  0  0  0  0  0  0  0  0  0
    9.0000    0.0000    0.0000 C   0  0  0  0  0  0  0  0  0  0  0  0
    9.0000    1.5000    0.0000 F   0  0  0  0  0  0  0  0  0  0  0  0
    9.0000   -1.5000    0.0000 F   0  0  0  0  0  0  0  0  0  0  0  0
   10.5000    0.0000    0.0000 C   0  0  0  0  0  0  0  0  0  0  0  0
   12.0000    0.0000    0.0000 F   0  0  0  0  0  0  0  0  0  0  0  0
   10.5000   -1.5000    0.0000 F   0  0  0  0  0  0  0  0  0  0  0  0
   10.5000    1.5000    0.0000 F   0  0  0  0  0  0  0  0  0  0  0  0
  1  2  1  0
  2  3  2  0
  2  4  2  0
  2  5  1  0
  5  6  1  0
  5  7  1  0
  5  8  1  0
  8  9  1  0
  8 10  1  0
  8 11  1  0
 11 12  1  0
 11 13  1  0
 11 14  1  0
 14 15  1  0
 14 16  1  0
 14 17  1  0
 17 18  1  0
 17 19  1  0
 17 20  1  0
 20 21  1  0
 20 22  1  0
 20 23  1  0
 23 24  1  0
 23 25  1  0
 23 26  1  0
 26 27  1  0
 26 28  1  0
 26 29  1  0
M  END
$$$$

     RDKit          2D

 32 32  0  0  0  0  0  0  0  0999 V2000
   15.0000    0.0000    0.0000 F   0  0  0  0  0  0  0  0  0  0  0  0
   13.5000    0.0000    0.0000 C   0  0  0  0  0  0  0  0  0  0  0  0
   13.5000    1.5000    0.0000 F   0  0  0  0  0  0  0  0  0  0  0  0
   13.5000   -1.5000    0.0000 F   0  0  0  0  0  0  0  0  0  0  0  0
   12.0000    0.0000    0.0000 C   0  0  0  0  0  0  0  0  0  0  0  0
   12.0000   -1.5000    0.0000 F   0  0  0  0  0  0  0  0  0  0  0  0
   12.0000    1.5000    0.0000 F   0  0  0  0  0  0  0  0  0  0  0  0
   10.5000    0.0000    0.0000 C   0  0  0  0  0  0  0  0  0  0  0  0
   10.5000    1.5000    0.0000 F   0  0  0  0  0  0  0  0  0  0  0  0
   10.5000   -1.5000    0.0000 F   0  0  0  0  0  0  0  0  0  0  0  0
    9.0000    0.0000    0.0000 C   0  0  0  0  0  0  0  0  0  0  0  0
    9.0000   -1.5000    0.0000 F   0  0  0  0  0  0  0  0  0  0  0  0
    9.0000    1.5000    0.0000 F   0  0  0  0  0  0  0  0  0  0  0  0
    7.5000    0.0000    0.0000 C   0  0  0  0  0  0  0  0  0  0  0  0
    7.5000    1.5000    0.0000 F   0  0  0  0  0  0  0  0  0  0  0  0
    7.5000   -1.5000    0.0000 F   0  0  0  0  0  0  0  0  0  0  0  0
    6.0000    0.0000    0.0000 C   0  0  0  0  0  0  0  0  0  0  0  0
    6.0000   -1.5000    0.0000 F   0  0  0  0  0  0  0  0  0  0  0  0
    6.0000    1.5000    0.0000 F   0  0  0  0  0  0  0  0  0  0  0  0
    4.5000    0.0000    0.0000 C   0  0  0  0  0  0  0  0  0  0  0  0
    4.5000    1.5000    0.0000 F   0  0  0  0  0  0  0  0  0  0  0  0
    4.5000   -1.5000    0.0000 F   0  0  0  0  0  0  0  0  0  0  0  0
    3.0000    0.0000    0.0000 C   0  0  0  0  0  0  0  0  0  0  0  0
    3.0000   -1.5000    0.0000 F   0  0  0  0  0  0  0  0  0  0  0  0
    3.0000    1.5000    0.0000 F   0  0  0  0  0  0  0  0  0  0  0  0
    1.5000    0.0000    0.0000 C   0  0  0  0  0  0  0  0  0  0  0  0
    0.7500   -1.2990    0.0000 C   0  0  0  0  0  0  0  0  0  0  0  0
   -0.7500   -1.2990    0.0000 C   0  0  0  0  0  0  0  0  0  0  0  0
   -1.5000    0.0000    0.0000 C   0  0  0  0  0  0  0  0  0  0  0  0
   -0.7500    1.2990    0.0000 C   0  0  0  0  0  0  0  0  0  0  0  0
   -1.5000    2.5981    0.0000 Br  0  0  0  0  0  0  0  0  0  0  0  0
    0.7500    1.2990    0.0000 C   0  0  0  0  0  0  0  0  0  0  0  0
  1  2  1  0
  2  3  1  0
  2  4  1  0
  2  5  1  0
  5  6  1  0
  5  7  1  0
  5  8  1  0
  8  9  1  0
  8 10  1  0
  8 11  1  0
 11 12  1  0
 11 13  1  0
 11 14  1  0
 14 15  1  0
 14 16  1  0
 14 17  1  0
 17 18  1  0
 17 19  1  0
 17 20  1  0
 20 21  1  0
 20 22  1  0
 20 23  1  0
 23 24  1  0
 23 25  1  0
 23 26  1  0
 26 27  2  0
 27 28  1  0
 28 29  2  0
 29 30  1  0
 30 31  1  0
 30 32  2  0
 32 26  1  0
M  END
$$$$

     RDKit          2D

 10  9  0  0  0  0  0  0  0  0999 V2000
   -0.0000   -1.5000    0.0000 N   0  0  0  0  0  0  0  0  0  0  0  0
    0.0000    0.0000    0.0000 C   0  0  0  0  0  0  0  0  0  0  0  0
   -1.2990    0.7500    0.0000 N   0  0  0  0  0  0  0  0  0  0  0  0
    1.2990    0.7500    0.0000 C   0  0  0  0  0  0  0  0  0  0  0  0
    2.0490   -0.5490    0.0000 F   0  0  0  0  0  0  0  0  0  0  0  0
    0.5490    2.0490    0.0000 F   0  0  0  0  0  0  0  0  0  0  0  0
    2.5981    1.5000    0.0000 C   0  0  0  0  0  0  0  0  0  0  0  0
    3.8971    2.2500    0.0000 F   0  0  0  0  0  0  0  0  0  0  0  0
    1.8481    2.7990    0.0000 F   0  0  0  0  0  0  0  0  0  0  0  0
    3.3481    0.2010    0.0000 F   0  0  0  0  0  0  0  0  0  0  0  0
  1  2  2  0
  2  3  1  0
  2  4  1  0
  4  5  1  0
  4  6  1  0
  4  7  1  0
  7  8  1  0
  7  9  1  0
  7 10  1  0
M  END
$$$$

     RDKit          2D

 15 14  0  0  0  0  0  0  0  0999 V2000
    6.4952    3.7500    0.0000 F   0  0  0  0  0  0  0  0  0  0  0  0
    5.1962    3.0000    0.0000 C   0  0  0  0  0  0  0  0  0  0  0  0
    4.4462    4.2990    0.0000 F   0  0  0  0  0  0  0  0  0  0  0  0
    5.9462    1.7010    0.0000 F   0  0  0  0  0  0  0  0  0  0  0  0
    3.8971    2.2500    0.0000 C   0  0  0  0  0  0  0  0  0  0  0  0
    4.6471    0.9510    0.0000 F   0  0  0  0  0  0  0  0  0  0  0  0
    3.1471    3.5490    0.0000 F   0  0  0  0  0  0  0  0  0  0  0  0
    2.5981    1.5000    0.0000 C   0  0  0  0  0  0  0  0  0  0  0  0
    3.3481    0.2010    0.0000 F   0  0  0  0  0  0  0  0  0  0  0  0
    1.8481    2.7990    0.0000 F   0  0  0  0  0  0  0  0  0  0  0  0
    1.2990    0.7500    0.0000 C   0  0  0  0  0  0  0  0  0  0  0  0
    0.5490    2.0490    0.0000 F   0  0  0  0  0  0  0  0  0  0  0  0
    2.0490   -0.5490    0.0000 F   0  0  0  0  0  0  0  0  0  0  0  0
    0.0000    0.0000    0.0000 C   0  0  0  0  0  0  0  0  0  0  0  0
   -1.2990    0.7500    0.0000 I   0  0  0  0  0  0  0  0  0  0  0  0
  1  2  1  0
  2  3  1  0
  2  4  1  0
  2  5  1  0
  5  6  1  0
  5  7  1  0
  5  8  1  0
  8  9  1  0
  8 10  1  0
  8 11  1  0
 11 12  1  0
 11 13  1  0
 11 14  1  0
 14 15  1  0
M  END
$$$$

     RDKit          2D

 22 21  0  0  0  0  0  0  0  0999 V2000
   -1.2990    0.7500    0.0000 O   0  0  0  0  0  0  0  0  0  0  0  0
    0.0000    0.0000    0.0000 C   0  0  0  0  0  0  0  0  0  0  0  0
    1.2990    0.7500    0.0000 C   0  0  0  0  0  0  0  0  0  0  0  0
    2.0490   -0.5490    0.0000 F   0  0  0  0  0  0  0  0  0  0  0  0
    0.5490    2.0490    0.0000 F   0  0  0  0  0  0  0  0  0  0  0  0
    2.5981    1.5000    0.0000 C   0  0  0  0  0  0  0  0  0  0  0  0
    1.8481    2.7990    0.0000 F   0  0  0  0  0  0  0  0  0  0  0  0
    3.3481    0.2010    0.0000 F   0  0  0  0  0  0  0  0  0  0  0  0
    3.8971    2.2500    0.0000 C   0  0  0  0  0  0  0  0  0  0  0  0
    4.6471    0.9510    0.0000 F   0  0  0  0  0  0  0  0  0  0  0  0
    3.1471    3.5490    0.0000 F   0  0  0  0  0  0  0  0  0  0  0  0
    5.1962    3.0000    0.0000 C   0  0  0  0  0  0  0  0  0  0  0  0
    5.9462    1.7010    0.0000 F   0  0  0  0  0  0  0  0  0  0  0  0
    4.4462    4.2990    0.0000 F   0  0  0  0  0  0  0  0  0  0  0  0
    6.4952    3.7500    0.0000 C   0  0  0  0  0  0  0  0  0  0  0  0
    5.7452    5.0490    0.0000 F   0  0  0  0  0  0  0  0  0  0  0  0
    7.2452    2.4510    0.0000 F   0  0  0  0  0  0  0  0  0  0  0  0
    7.7942    4.5000    0.0000 C   0  0  0  0  0  0  0  0  0  0  0  0
    8.5442    3.2010    0.0000 F   0  0  0  0  0  0  0  0  0  0  0  0
    7.0442    5.7990    0.0000 F   0  0  0  0  0  0  0  0  0  0  0  0
    9.0933    5.2500    0.0000 C   0  0  0  0  0  0  0  0  0  0  0  0
   10.3923    4.5000    0.0000 O   0  0  0  0  0  0  0  0  0  0  0  0
  1  2  1  0
  2  3  1  0
  3  4  1  0
  3  5  1  0
  3  6  1  0
  6  7  1  0
  6  8  1  0
  6  9  1  0
  9 10  1  0
  9 11  1  0
  9 12  1  0
 12 13  1  0
 12 14  1  0
 12 15  1  0
 15 16  1  0
 15 17  1  0
 15 18  1  0
 18 19  1  0
 18 20  1  0
 18 21  1  0
 21 22  1  0
M  END
$$$$

     RDKit          2D

 21 20  0  0  0  0  0  0  0  0999 V2000
   -0.0000   -1.5000    0.0000 O   0  0  0  0  0  0  0  0  0  0  0  0
    0.0000    0.0000    0.0000 C   0  0  0  0  0  0  0  0  0  0  0  0
   -1.2990    0.7500    0.0000 O   0  0  0  0  0  0  0  0  0  0  0  0
    1.2990    0.7500    0.0000 C   0  0  0  0  0  0  0  0  0  0  0  0
    2.0490   -0.5490    0.0000 F   0  0  0  0  0  0  0  0  0  0  0  0
    0.5490    2.0490    0.0000 F   0  0  0  0  0  0  0  0  0  0  0  0
    2.5981    1.5000    0.0000 C   0  0  0  0  0  0  0  0  0  0  0  0
    1.8481    2.7990    0.0000 F   0  0  0  0  0  0  0  0  0  0  0  0
    3.3481    0.2010    0.0000 F   0  0  0  0  0  0  0  0  0  0  0  0
    3.8971    2.2500    0.0000 C   0  0  0  0  0  0  0  0  0  0  0  0
    4.6471    0.9510    0.0000 F   0  0  0  0  0  0  0  0  0  0  0  0
    3.1471    3.5490    0.0000 F   0  0  0  0  0  0  0  0  0  0  0  0
    5.1962    3.0000    0.0000 C   0  0  0  0  0  0  0  0  0  0  0  0
    5.9462    1.7010    0.0000 F   0  0  0  0  0  0  0  0  0  0  0  0
    4.4462    4.2990    0.0000 F   0  0  0  0  0  0  0  0  0  0  0  0
    6.4952    3.7500    0.0000 C   0  0  0  0  0  0  0  0  0  0  0  0
    5.7452    5.0490    0.0000 F   0  0  0  0  0  0  0  0  0  0  0  0
    7.2452    2.4510    0.0000 F   0  0  0  0  0  0  0  0  0  0  0  0
    7.7942    4.5000    0.0000 C   0  0  0  0  0  0  0  0  0  0  0  0
    9.0933    3.7500    0.0000 O   0  0  0  0  0  0  0  0  0  0  0  0
    7.7942    6.0000    0.0000 O   0  0  0  0  0  0  0  0  0  0  0  0
  1  2  2  0
  2  3  1  0
  2  4  1  0
  4  5  1  0
  4  6  1  0
  4  7  1  0
  7  8  1  0
  7  9  1  0
  7 10  1  0
 10 11  1  0
 10 12  1  0
 10 13  1  0
 13 14  1  0
 13 15  1  0
 13 16  1  0
 16 17  1  0
 16 18  1  0
 16 19  1  0
 19 20  2  0
 19 21  1  0
M  END
$$$$

     RDKit          2D

 32 32  0  0  0  0  0  0  0  0999 V2000
    3.0000    0.0000    0.0000 N   0  0  0  0  0  0  0  0  0  0  0  0
    1.5000    0.0000    0.0000 C   0  0  0  0  0  0  0  0  0  0  0  0
    0.7500   -1.2990    0.0000 C   0  0  0  0  0  0  0  0  0  0  0  0
   -0.7500   -1.2990    0.0000 C   0  0  0  0  0  0  0  0  0  0  0  0
   -1.5000    0.0000    0.0000 C   0  0  0  0  0  0  0  0  0  0  0  0
   -0.7500    1.2990    0.0000 C   0  0  0  0  0  0  0  0  0  0  0  0
   -1.5000    2.5981    0.0000 C   0  0  0  0  0  0  0  0  0  0  0  0
   -0.2010    3.3481    0.0000 F   0  0  0  0  0  0  0  0  0  0  0  0
   -2.7990    1.8481    0.0000 F   0  0  0  0  0  0  0  0  0  0  0  0
   -2.2500    3.8971    0.0000 C   0  0  0  0  0  0  0  0  0  0  0  0
   -3.5490    3.1471    0.0000 F   0  0  0  0  0  0  0  0  0  0  0  0
   -0.9510    4.6471    0.0000 F   0  0  0  0  0  0  0  0  0  0  0  0
   -3.0000    5.1962    0.0000 C   0  0  0  0  0  0  0  0  0  0  0  0
   -1.7010    5.9462    0.0000 F   0  0  0  0  0  0  0  0  0  0  0  0
   -4.2990    4.4462    0.0000 F   0  0  0  0  0  0  0  0  0  0  0  0
   -3.7500    6.4952    0.0000 C   0  0  0  0  0  0  0  0  0  0  0  0
   -5.0490    5.7452    0.0000 F   0  0  0  0  0  0  0  0  0  0  0  0
   -2.4510    7.2452    0.0000 F   0  0  0  0  0  0  0  0  0  0  0  0
   -4.5000    7.7942    0.0000 C   0  0  0  0  0  0  0  0  0  0  0  0
   -3.2010    8.5442    0.0000 F   0  0  0  0  0  0  0  0  0  0  0  0
   -5.7990    7.0442    0.0000 F   0  0  0  0  0  0  0  0  0  0  0  0
   -5.2500    9.0933    0.0000 C   0  0  0  0  0  0  0  0  0  0  0  0
   -6.5490    8.3433    0.0000 F   0  0  0  0  0  0  0  0  0  0  0  0
   -3.9510    9.8433    0.0000 F   0  0  0  0  0  0  0  0  0  0  0  0
   -6.0000   10.3923    0.0000 C   0  0  0  0  0  0  0  0  0  0  0  0
   -4.7010   11.1423    0.0000 F   0  0  0  0  0  0  0  0  0  0  0  0
   -7.2990    9.6423    0.0000 F   0  0  0  0  0  0  0  0  0  0  0  0
   -6.7500   11.6913    0.0000 C   0  0  0  0  0  0  0  0  0  0  0  0
   -7.5000   12.9904    0.0000 F   0  0  0  0  0  0  0  0  0  0  0  0
   -8.0490   10.9413    0.0000 F   0  0  0  0  0  0  0  0  0  0  0  0
   -5.4510   12.4413    0.0000 F   0  0  0  0  0  0  0  0  0  0  0  0
    0.7500    1.2990    0.0000 C   0  0  0  0  0  0  0  0  0  0  0  0
  1  2  1  0
  2  3  2  0
  3  4  1  0
  4  5  2  0
  5  6  1  0
  6  7  1  0
  7  8  1  0
  7  9  1  0
  7 10  1  0
 10 11  1  0
 10 12  1  0
 10 13  1  0
 13 14  1  0
 13 15  1  0
 13 16  1  0
 16 17  1  0
 16 18  1  0
 16 19  1  0
 19 20  1  0
 19 21  1  0
 19 22  1  0
 22 23  1  0
 22 24  1  0
 22 25  1  0
 25 26  1  0
 25 27  1  0
 25 28  1  0
 28 29  1  0
 28 30  1  0
 28 31  1  0
  6 32  2  0
 32  2  1  0
M  END
$$$$

     RDKit          2D

 35 34  0  0  0  0  0  0  0  0999 V2000
   -1.5000   -1.5000    0.0000 O   0  0  0  0  0  0  0  0  0  0  0  0
    0.0000   -1.5000    0.0000 S   0  0  0  0  0  0  0  0  0  0  0  0
    0.7912   -1.5972    0.0000 O   0  0  0  0  0  0  0  0  0  0  0  0
   -0.0000   -3.0000    0.0000 O   0  0  0  0  0  0  0  0  0  0  0  0
    0.0000    0.0000    0.0000 C   0  0  0  0  0  0  0  0  0  0  0  0
   -1.5000    0.0000    0.0000 F   0  0  0  0  0  0  0  0  0  0  0  0
    0.0000    1.5000    0.0000 F   0  0  0  0  0  0  0  0  0  0  0  0
    1.5000    0.0000    0.0000 C   0  0  0  0  0  0  0  0  0  0  0  0
    1.5000    1.5000    0.0000 F   0  0  0  0  0  0  0  0  0  0  0  0
    1.6080   -0.8791    0.0000 F   0  0  0  0  0  0  0  0  0  0  0  0
    3.0000    0.0000    0.0000 C   0  0  0  0  0  0  0  0  0  0  0  0
    3.0000   -1.5000    0.0000 F   0  0  0  0  0  0  0  0  0  0  0  0
    3.0000    1.5000    0.0000 F   0  0  0  0  0  0  0  0  0  0  0  0
    4.5000    0.0000    0.0000 C   0  0  0  0  0  0  0  0  0  0  0  0
    4.5000    1.5000    0.0000 F   0  0  0  0  0  0  0  0  0  0  0  0
    4.5000   -1.5000    0.0000 F   0  0  0  0  0  0  0  0  0  0  0  0
    6.0000    0.0000    0.0000 C   0  0  0  0  0  0  0  0  0  0  0  0
    6.0000   -1.5000    0.0000 F   0  0  0  0  0  0  0  0  0  0  0  0
    6.0000    1.5000    0.0000 F   0  0  0  0  0  0  0  0  0  0  0  0
    7.5000    0.0000    0.0000 C   0  0  0  0  0  0  0  0  0  0  0  0
    7.5000   -1.5000    0.0000 F   0  0  0  0  0  0  0  0  0  0  0  0
    7.5000    1.5000    0.0000 F   0  0  0  0  0  0  0  0  0  0  0  0
    9.0000    0.0000    0.0000 C   0  0  0  0  0  0  0  0  0  0  0  0
    9.0000    1.5000    0.0000 F   0  0  0  0  0  0  0  0  0  0  0  0
    9.0000   -1.5000    0.0000 F   0  0  0  0  0  0  0  0  0  0  0  0
   10.5000    0.0000    0.0000 C   0  0  0  0  0  0  0  0  0  0  0  0
   10.5000   -1.5000    0.0000 F   0  0  0  0  0  0  0  0  0  0  0  0
   10.5000    1.5000    0.0000 F   0  0  0  0  0  0  0  0  0  0  0  0
   12.0000    0.0000    0.0000 C   0  0  0  0  0  0  0  0  0  0  0  0
   12.0000    1.5000    0.0000 F   0  0  0  0  0  0  0  0  0  0  0  0
   12.0000   -1.5000    0.0000 F   0  0  0  0  0  0  0  0  0  0  0  0
   13.5000    0.0000    0.0000 C   0  0  0  0  0  0  0  0  0  0  0  0
   15.0000    0.0000    0.0000 F   0  0  0  0  0  0  0  0  0  0  0  0
   13.5000   -1.5000    0.0000 F   0  0  0  0  0  0  0  0  0  0  0  0
   13.5000    1.5000    0.0000 F   0  0  0  0  0  0  0  0  0  0  0  0
  1  2  2  0
  2  3  2  0
  2  4  1  0
  2  5  1  0
  5  6  1  0
  5  7  1  0
  5  8  1  0
  8  9  1  0
  8 10  1  0
  8 11  1  0
 11 12  1  0
 11 13  1  0
 11 14  1  0
 14 15  1  0
 14 16  1  0
 14 17  1  0
 17 18  1  0
 17 19  1  0
 17 20  1  0
 20 21  1  0
 20 22  1  0
 20 23  1  0
 23 24  1  0
 23 25  1  0
 23 26  1  0
 26 27  1  0
 26 28  1  0
 26 29  1  0
 29 30  1  0
 29 31  1  0
 29 32  1  0
 32 33  1  0
 32 34  1  0
 32 35  1  0
M  END
$$$$

     RDKit          2D

100102  0  0  0  0  0  0  0  0999 V2000
   17.2500   -1.2990    0.0000 F   0  0  0  0  0  0  0  0  0  0  0  0
   15.7500   -1.2990    0.0000 C   0  0  0  0  0  0  0  0  0  0  0  0
   15.7500    0.2010    0.0000 F   0  0  0  0  0  0  0  0  0  0  0  0
   15.7500   -2.7990    0.0000 F   0  0  0  0  0  0  0  0  0  0  0  0
   14.2500   -1.2990    0.0000 C   0  0  0  0  0  0  0  0  0  0  0  0
   14.2500   -2.7990    0.0000 F   0  0  0  0  0  0  0  0  0  0  0  0
   14.2500    0.2010    0.0000 F   0  0  0  0  0  0  0  0  0  0  0  0
   12.7500   -1.2990    0.0000 C   0  0  0  0  0  0  0  0  0  0  0  0
   12.7500    0.2010    0.0000 F   0  0  0  0  0  0  0  0  0  0  0  0
   12.7500   -2.7990    0.0000 F   0  0  0  0  0  0  0  0  0  0  0  0
   11.2500   -1.2990    0.0000 C   0  0  0  0  0  0  0  0  0  0  0  0
   11.2500   -2.7990    0.0000 F   0  0  0  0  0  0  0  0  0  0  0  0
   11.2500    0.2010    0.0000 F   0  0  0  0  0  0  0  0  0  0  0  0
    9.7500   -1.2990    0.0000 C   0  0  0  0  0  0  0  0  0  0  0  0
    9.7500    0.2010    0.0000 F   0  0  0  0  0  0  0  0  0  0  0  0
    9.7500   -2.7990    0.0000 F   0  0  0  0  0  0  0  0  0  0  0  0
    8.2500   -1.2990    0.0000 C   0  0  0  0  0  0  0  0  0  0  0  0
    8.2500   -2.7990    0.0000 F   0  0  0  0  0  0  0  0  0  0  0  0
    8.2500    0.2010    0.0000 F   0  0  0  0  0  0  0  0  0  0  0  0
    6.7500   -1.2990    0.0000 C   0  0  0  0  0  0  0  0  0  0  0  0
    6.7500    0.2010    0.0000 F   0  0  0  0  0  0  0  0  0  0  0  0
    6.7500   -2.7990    0.0000 F   0  0  0  0  0  0  0  0  0  0  0  0
    5.2500   -1.2990    0.0000 C   0  0  0  0  0  0  0  0  0  0  0  0
    5.2500   -2.7990    0.0000 F   0  0  0  0  0  0  0  0  0  0  0  0
    5.2500    0.2010    0.0000 F   0  0  0  0  0  0  0  0  0  0  0  0
    3.7500   -1.2990    0.0000 C   0  0  0  0  0  0  0  0  0  0  0  0
    3.0000    0.0000    0.0000 C   0  0  0  0  0  0  0  0  0  0  0  0
    1.5000    0.0000    0.0000 C   0  0  0  0  0  0  0  0  0  0  0  0
    0.7500   -1.2990    0.0000 C   0  0  0  0  0  0  0  0  0  0  0  0
   -0.7500   -1.2990    0.0000 C   0  0  0  0  0  0  0  0  0  0  0  0
   -1.5000    0.0000    0.0000 C   0  0  0  0  0  0  0  0  0  0  0  0
   -0.7500    1.2990    0.0000 C   0  0  0  0  0  0  0  0  0  0  0  0
   -1.5000    2.5981    0.0000 P   0  0  0  0  0  0  0  0  0  0  0  0
   -0.7500    3.8971    0.0000 C   0  0  0  0  0  0  0  0  0  0  0  0
    0.7500    3.8971    0.0000 C   0  0  0  0  0  0  0  0  0  0  0  0
    1.5000    5.1962    0.0000 C   0  0  0  0  0  0  0  0  0  0  0  0
    0.7500    6.4952    0.0000 C   0  0  0  0  0  0  0  0  0  0  0  0
   -0.7500    6.4952    0.0000 C   0  0  0  0  0  0  0  0  0  0  0  0
   -1.5000    7.7942    0.0000 C   0  0  0  0  0  0  0  0  0  0  0  0
   -0.7500    9.0933    0.0000 C   0  0  0  0  0  0  0  0  0  0  0  0
   -1.5000   10.3923    0.0000 C   0  0  0  0  0  0  0  0  0  0  0  0
   -0.2010   11.1423    0.0000 F   0  0  0  0  0  0  0  0  0  0  0  0
   -2.7990    9.6423    0.0000 F   0  0  0  0  0  0  0  0  0  0  0  0
   -2.2500   11.6913    0.0000 C   0  0  0  0  0  0  0  0  0  0  0  0
   -3.5490   10.9413    0.0000 F   0  0  0  0  0  0  0  0  0  0  0  0
   -0.9510   12.4413    0.0000 F   0  0  0  0  0  0  0  0  0  0  0  0
   -3.0000   12.9904    0.0000 C   0  0  0  0  0  0  0  0  0  0  0  0
   -1.7010   13.7404    0.0000 F   0  0  0  0  0  0  0  0  0  0  0  0
   -4.2990   12.2404    0.0000 F   0  0  0  0  0  0  0  0  0  0  0  0
   -3.7500   14.2894    0.0000 C   0  0  0  0  0  0  0  0  0  0  0  0
   -5.0490   13.5394    0.0000 F   0  0  0  0  0  0  0  0  0  0  0  0
   -2.4510   15.0394    0.0000 F   0  0  0  0  0  0  0  0  0  0  0  0
   -4.5000   15.5885    0.0000 C   0  0  0  0  0  0  0  0  0  0  0  0
   -3.2010   16.3385    0.0000 F   0  0  0  0  0  0  0  0  0  0  0  0
   -5.7990   14.8385    0.0000 F   0  0  0  0  0  0  0  0  0  0  0  0
   -5.2500   16.8875    0.0000 C   0  0  0  0  0  0  0  0  0  0  0  0
   -6.5490   16.1375    0.0000 F   0  0  0  0  0  0  0  0  0  0  0  0
   -3.9510   17.6375    0.0000 F   0  0  0  0  0  0  0  0  0  0  0  0
   -6.0000   18.1865    0.0000 C   0  0  0  0  0  0  0  0  0  0  0  0
   -4.7010   18.9365    0.0000 F   0  0  0  0  0  0  0  0  0  0  0  0
   -7.2990   17.4365    0.0000 F   0  0  0  0  0  0  0  0  0  0  0  0
   -6.7500   19.4856    0.0000 C   0  0  0  0  0  0  0  0  0  0  0  0
   -7.5000   20.7846    0.0000 F   0  0  0  0  0  0  0  0  0  0  0  0
   -8.0490   18.7356    0.0000 F   0  0  0  0  0  0  0  0  0  0  0  0
   -5.4510   20.2356    0.0000 F   0  0  0  0  0  0  0  0  0  0  0  0
   -1.5000    5.1962    0.0000 C   0  0  0  0  0  0  0  0  0  0  0  0
   -3.0000    2.5981    0.0000 C   0  0  0  0  0  0  0  0  0  0  0  0
   -3.7500    3.8971    0.0000 C   0  0  0  0  0  0  0  0  0  0  0  0
   -5.2500    3.8971    0.0000 C   0  0  0  0  0  0  0  0  0  0  0  0
   -6.0000    2.5981    0.0000 C   0  0  0  0  0  0  0  0  0  0  0  0
   -5.2500    1.2990    0.0000 C   0  0  0  0  0  0  0  0  0  0  0  0
   -6.0000   -0.0000    0.0000 C   0  0  0  0  0  0  0  0  0  0  0  0
   -7.5000   -0.0000    0.0000 C   0  0  0  0  0  0  0  0  0  0  0  0
   -8.2500   -1.2990    0.0000 C   0  0  0  0  0  0  0  0  0  0  0  0
   -9.5490   -0.5490    0.0000 F   0  0  0  0  0  0  0  0  0  0  0  0
   -6.9510   -2.0490    0.0000 F   0  0  0  0  0  0  0  0  0  0  0  0
   -9.0000   -2.5981    0.0000 C   0  0  0  0  0  0  0  0  0  0  0  0
   -7.7010   -3.3481    0.0000 F   0  0  0  0  0  0  0  0  0  0  0  0
  -10.2990   -1.8481    0.0000 F   0  0  0  0  0  0  0  0  0  0  0  0
   -9.7500   -3.8971    0.0000 C   0  0  0  0  0  0  0  0  0  0  0  0
  -11.0490   -3.1471    0.0000 F   0  0  0  0  0  0  0  0  0  0  0  0
   -8.4510   -4.6471    0.0000 F   0  0  0  0  0  0  0  0  0  0  0  0
  -10.5000   -5.1962    0.0000 C   0  0  0  0  0  0  0  0  0  0  0  0
   -9.2010   -5.9462    0.0000 F   0  0  0  0  0  0  0  0  0  0  0  0
  -11.7990   -4.4462    0.0000 F   0  0  0  0  0  0  0  0  0  0  0  0
  -11.2500   -6.4952    0.0000 C   0  0  0  0  0  0  0  0  0  0  0  0
  -12.5490   -5.7452    0.0000 F   0  0  0  0  0  0  0  0  0  0  0  0
   -9.9510   -7.2452    0.0000 F   0  0  0  0  0  0  0  0  0  0  0  0
  -12.0000   -7.7942    0.0000 C   0  0  0  0  0  0  0  0  0  0  0  0
  -10.7010   -8.5442    0.0000 F   0  0  0  0  0  0  0  0  0  0  0  0
  -13.2990   -7.0442    0.0000 F   0  0  0  0  0  0  0  0  0  0  0  0
  -12.7500   -9.0933    0.0000 C   0  0  0  0  0  0  0  0  0  0  0  0
  -14.0490   -8.3433    0.0000 F   0  0  0  0  0  0  0  0  0  0  0  0
  -11.4510   -9.8433    0.0000 F   0  0  0  0  0  0  0  0  0  0  0  0
  -13.5000  -10.3923    0.0000 C   0  0  0  0  0  0  0  0  0  0  0  0
  -14.2500  -11.6913    0.0000 F   0  0  0  0  0  0  0  0  0  0  0  0
  -12.2010  -11.1423    0.0000 F   0  0  0  0  0  0  0  0  0  0  0  0
  -14.7990   -9.6423    0.0000 F   0  0  0  0  0  0  0  0  0  0  0  0
   -3.7500    1.2990    0.0000 C   0  0  0  0  0  0  0  0  0  0  0  0
    0.7500    1.2990    0.0000 C   0  0  0  0  0  0  0  0  0  0  0  0
  1  2  1  0
  2  3  1  0
  2  4  1  0
  2  5  1  0
  5  6  1  0
  5  7  1  0
  5  8  1  0
  8  9  1  0
  8 10  1  0
  8 11  1  0
 11 12  1  0
 11 13  1  0
 11 14  1  0
 14 15  1  0
 14 16  1  0
 14 17  1  0
 17 18  1  0
 17 19  1  0
 17 20  1  0
 20 21  1  0
 20 22  1  0
 20 23  1  0
 23 24  1  0
 23 25  1  0
 23 26  1  0
 26 27  1  0
 27 28  1  0
 28 29  2  0
 29 30  1  0
 30 31  2  0
 31 32  1  0
 32 33  1  0
 33 34  1  0
 34 35  2  0
 35 36  1  0
 36 37  2  0
 37 38  1  0
 38 39  1  0
 39 40  1  0
 40 41  1  0
 41 42  1  0
 41 43  1  0
 41 44  1  0
 44 45  1  0
 44 46  1  0
 44 47  1  0
 47 48  1  0
 47 49  1  0
 47 50  1  0
 50 51  1  0
 50 52  1  0
 50 53  1  0
 53 54  1  0
 53 55  1  0
 53 56  1  0
 56 57  1  0
 56 58  1  0
 56 59  1  0
 59 60  1  0
 59 61  1  0
 59 62  1  0
 62 63  1  0
 62 64  1  0
 62 65  1  0
 38 66  2  0
 33 67  1  0
 67 68  2  0
 68 69  1  0
 69 70  2  0
 70 71  1  0
 71 72  1  0
 72 73  1  0
 73 74  1  0
 74 75  1  0
 74 76  1  0
 74 77  1  0
 77 78  1  0
 77 79  1  0
 77 80  1  0
 80 81  1  0
 80 82  1  0
 80 83  1  0
 83 84  1  0
 83 85  1  0
 83 86  1  0
 86 87  1  0
 86 88  1  0
 86 89  1  0
 89 90  1  0
 89 91  1  0
 89 92  1  0
 92 93  1  0
 92 94  1  0
 92 95  1  0
 95 96  1  0
 95 97  1  0
 95 98  1  0
 71 99  2  0
 32100  2  0
100 28  1  0
 66 34  1  0
 99 67  1  0
M  END
$$$$

     RDKit          2D

 22 22  0  0  0  0  0  0  0  0999 V2000
    3.7500   -1.2990    0.0000 C   0  0  0  0  0  0  0  0  0  0  0  0
    3.0000    0.0000    0.0000 N   0  0  0  0  0  0  0  0  0  0  0  0
    3.7500    1.2990    0.0000 C   0  0  0  0  0  0  0  0  0  0  0  0
    3.0000    2.5981    0.0000 O   0  0  0  0  0  0  0  0  0  0  0  0
    5.2500    1.2990    0.0000 C   0  0  0  0  0  0  0  0  0  0  0  0
    6.0000    2.5981    0.0000 Cl  0  0  0  0  0  0  0  0  0  0  0  0
    1.5000    0.0000    0.0000 C   0  0  0  0  0  0  0  0  0  0  0  0
    0.7500   -1.2990    0.0000 C   0  0  0  0  0  0  0  0  0  0  0  0
   -0.7500   -1.2990    0.0000 C   0  0  0  0  0  0  0  0  0  0  0  0
   -1.5000    0.0000    0.0000 C   0  0  0  0  0  0  0  0  0  0  0  0
   -3.0000    0.0000    0.0000 C   0  0  0  0  0  0  0  0  0  0  0  0
   -3.0000   -1.5000    0.0000 O   0  0  0  0  0  0  0  0  0  0  0  0
   -4.5000    0.0000    0.0000 C   0  0  0  0  0  0  0  0  0  0  0  0
   -6.0000   -0.0000    0.0000 F   0  0  0  0  0  0  0  0  0  0  0  0
   -4.5000   -1.5000    0.0000 F   0  0  0  0  0  0  0  0  0  0  0  0
   -4.6080    0.8791    0.0000 F   0  0  0  0  0  0  0  0  0  0  0  0
   -3.0000    1.5000    0.0000 C   0  0  0  0  0  0  0  0  0  0  0  0
   -3.0000    3.0000    0.0000 F   0  0  0  0  0  0  0  0  0  0  0  0
   -3.8791    1.6080    0.0000 F   0  0  0  0  0  0  0  0  0  0  0  0
   -1.5446    1.8630    0.0000 F   0  0  0  0  0  0  0  0  0  0  0  0
   -0.7500    1.2990    0.0000 C   0  0  0  0  0  0  0  0  0  0  0  0
    0.7500    1.2990    0.0000 C   0  0  0  0  0  0  0  0  0  0  0  0
  1  2  1  0
  2  3  1  0
  3  4  2  0
  3  5  1  0
  5  6  1  0
  2  7  1  0
  7  8  2  0
  8  9  1  0
  9 10  2  0
 10 11  1  0
 11 12  1  0
 11 13  1  0
 13 14  1  0
 13 15  1  0
 13 16  1  0
 11 17  1  0
 17 18  1  0
 17 19  1  0
 17 20  1  0
 10 21  1  0
 21 22  2  0
 22  7  1  0
M  END
$$$$

     RDKit          2D

 17 17  0  0  0  0  0  0  0  0999 V2000
    3.7500    1.2990    0.0000 O   0  0  0  0  0  0  0  0  0  0  0  0
    3.0000    0.0000    0.0000 N   0  0  0  0  0  0  0  0  0  0  0  0
    3.7500   -1.2990    0.0000 O   0  0  0  0  0  0  0  0  0  0  0  0
    1.5000    0.0000    0.0000 C   0  0  0  0  0  0  0  0  0  0  0  0
    0.7500   -1.2990    0.0000 C   0  0  0  0  0  0  0  0  0  0  0  0
   -0.7500   -1.2990    0.0000 C   0  0  0  0  0  0  0  0  0  0  0  0
   -1.5000    0.0000    0.0000 C   0  0  0  0  0  0  0  0  0  0  0  0
   -3.0000    0.0000    0.0000 O   0  0  0  0  0  0  0  0  0  0  0  0
   -3.7500    1.2990    0.0000 C   0  0  0  0  0  0  0  0  0  0  0  0
   -2.4510    2.0490    0.0000 F   0  0  0  0  0  0  0  0  0  0  0  0
   -5.0490    0.5490    0.0000 F   0  0  0  0  0  0  0  0  0  0  0  0
   -4.5000    2.5981    0.0000 C   0  0  0  0  0  0  0  0  0  0  0  0
   -5.2500    3.8971    0.0000 F   0  0  0  0  0  0  0  0  0  0  0  0
   -3.2010    3.3481    0.0000 F   0  0  0  0  0  0  0  0  0  0  0  0
   -5.7990    1.8481    0.0000 F   0  0  0  0  0  0  0  0  0  0  0  0
   -0.7500    1.2990    0.0000 C   0  0  0  0  0  0  0  0  0  0  0  0
    0.7500    1.2990    0.0000 C   0  0  0  0  0  0  0  0  0  0  0  0
  1  2  2  0
  2  3  1  0
  2  4  1  0
  4  5  2  0
  5  6  1  0
  6  7  2  0
  7  8  1  0
  8  9  1  0
  9 10  1  0
  9 11  1  0
  9 12  1  0
 12 13  1  0
 12 14  1  0
 12 15  1  0
  7 16  1  0
 16 17  2  0
 17  4  1  0
M  CHG  2   2   1   3  -1
M  END
$$$$

     RDKit          2D

 13 13  0  0  0  0  0  0  0  0999 V2000
    2.7760    0.0000    0.0000 N   0  0  0  0  0  0  0  0  0  0  0  0
    1.2760    0.0000    0.0000 C   0  0  0  0  0  0  0  0  0  0  0  0
    0.3943    1.2135    0.0000 N   0  0  0  0  0  0  0  0  0  0  0  0
   -1.0323    0.7500    0.0000 N   0  0  0  0  0  0  0  0  0  0  0  0
   -1.0323   -0.7500    0.0000 C   0  0  0  0  0  0  0  0  0  0  0  0
   -2.2458   -1.6317    0.0000 C   0  0  0  0  0  0  0  0  0  0  0  0
   -3.1275   -0.4182    0.0000 F   0  0  0  0  0  0  0  0  0  0  0  0
   -1.3641   -2.8452    0.0000 F   0  0  0  0  0  0  0  0  0  0  0  0
   -3.4593   -2.5134    0.0000 C   0  0  0  0  0  0  0  0  0  0  0  0
   -4.6729   -3.3950    0.0000 F   0  0  0  0  0  0  0  0  0  0  0  0
   -2.5777   -3.7269    0.0000 F   0  0  0  0  0  0  0  0  0  0  0  0
   -4.3410   -1.2998    0.0000 F   0  0  0  0  0  0  0  0  0  0  0  0
    0.3943   -1.2135    0.0000 N   0  0  0  0  0  0  0  0  0  0  0  0
  1  2  1  0
  2  3  2  0
  3  4  1  0
  4  5  1  0
  5  6  1  0
  6  7  1  0
  6  8  1  0
  6  9  1  0
  9 10  1  0
  9 11  1  0
  9 12  1  0
  5 13  2  0
 13  2  1  0
M  END
$$$$

     RDKit          2D

 94 96  0  0  0  0  0  0  0  0999 V2000
   15.0000    0.0000    0.0000 F   0  0  0  0  0  0  0  0  0  0  0  0
   13.5000    0.0000    0.0000 C   0  0  0  0  0  0  0  0  0  0  0  0
   13.5000    1.5000    0.0000 F   0  0  0  0  0  0  0  0  0  0  0  0
   13.5000   -1.5000    0.0000 F   0  0  0  0  0  0  0  0  0  0  0  0
   12.0000    0.0000    0.0000 C   0  0  0  0  0  0  0  0  0  0  0  0
   12.0000   -1.5000    0.0000 F   0  0  0  0  0  0  0  0  0  0  0  0
   12.0000    1.5000    0.0000 F   0  0  0  0  0  0  0  0  0  0  0  0
   10.5000    0.0000    0.0000 C   0  0  0  0  0  0  0  0  0  0  0  0
   10.5000    1.5000    0.0000 F   0  0  0  0  0  0  0  0  0  0  0  0
   10.5000   -1.5000    0.0000 F   0  0  0  0  0  0  0  0  0  0  0  0
    9.0000    0.0000    0.0000 C   0  0  0  0  0  0  0  0  0  0  0  0
    9.0000   -1.5000    0.0000 F   0  0  0  0  0  0  0  0  0  0  0  0
    9.0000    1.5000    0.0000 F   0  0  0  0  0  0  0  0  0  0  0  0
    7.5000    0.0000    0.0000 C   0  0  0  0  0  0  0  0  0  0  0  0
    7.5000    1.5000    0.0000 F   0  0  0  0  0  0  0  0  0  0  0  0
    7.5000   -1.5000    0.0000 F   0  0  0  0  0  0  0  0  0  0  0  0
    6.0000    0.0000    0.0000 C   0  0  0  0  0  0  0  0  0  0  0  0
    6.0000   -1.5000    0.0000 F   0  0  0  0  0  0  0  0  0  0  0  0
    6.0000    1.5000    0.0000 F   0  0  0  0  0  0  0  0  0  0  0  0
    4.5000    0.0000    0.0000 C   0  0  0  0  0  0  0  0  0  0  0  0
    4.5000    1.5000    0.0000 F   0  0  0  0  0  0  0  0  0  0  0  0
    4.5000   -1.5000    0.0000 F   0  0  0  0  0  0  0  0  0  0  0  0
    3.0000    0.0000    0.0000 C   0  0  0  0  0  0  0  0  0  0  0  0
    3.0000   -1.5000    0.0000 F   0  0  0  0  0  0  0  0  0  0  0  0
    3.0000    1.5000    0.0000 F   0  0  0  0  0  0  0  0  0  0  0  0
    1.5000    0.0000    0.0000 C   0  0  0  0  0  0  0  0  0  0  0  0
    0.7500   -1.2990    0.0000 C   0  0  0  0  0  0  0  0  0  0  0  0
   -0.7500   -1.2990    0.0000 C   0  0  0  0  0  0  0  0  0  0  0  0
   -1.5000    0.0000    0.0000 C   0  0  0  0  0  0  0  0  0  0  0  0
   -0.7500    1.2990    0.0000 C   0  0  0  0  0  0  0  0  0  0  0  0
   -1.5000    2.5981    0.0000 P   0  0  0  0  0  0  0  0  0  0  0  0
   -0.7500    3.8971    0.0000 C   0  0  0  0  0  0  0  0  0  0  0  0
    0.7500    3.8971    0.0000 C   0  0  0  0  0  0  0  0  0  0  0  0
    1.5000    5.1962    0.0000 C   0  0  0  0  0  0  0  0  0  0  0  0
    0.7500    6.4952    0.0000 C   0  0  0  0  0  0  0  0  0  0  0  0
   -0.7500    6.4952    0.0000 C   0  0  0  0  0  0  0  0  0  0  0  0
   -1.5000    7.7942    0.0000 C   0  0  0  0  0  0  0  0  0  0  0  0
   -0.2010    8.5442    0.0000 F   0  0  0  0  0  0  0  0  0  0  0  0
   -2.7990    7.0442    0.0000 F   0  0  0  0  0  0  0  0  0  0  0  0
   -2.2500    9.0933    0.0000 C   0  0  0  0  0  0  0  0  0  0  0  0
   -3.5490    8.3433    0.0000 F   0  0  0  0  0  0  0  0  0  0  0  0
   -0.9510    9.8433    0.0000 F   0  0  0  0  0  0  0  0  0  0  0  0
   -3.0000   10.3923    0.0000 C   0  0  0  0  0  0  0  0  0  0  0  0
   -1.7010   11.1423    0.0000 F   0  0  0  0  0  0  0  0  0  0  0  0
   -4.2990    9.6423    0.0000 F   0  0  0  0  0  0  0  0  0  0  0  0
   -3.7500   11.6913    0.0000 C   0  0  0  0  0  0  0  0  0  0  0  0
   -5.0490   10.9413    0.0000 F   0  0  0  0  0  0  0  0  0  0  0  0
   -2.4510   12.4413    0.0000 F   0  0  0  0  0  0  0  0  0  0  0  0
   -4.5000   12.9904    0.0000 C   0  0  0  0  0  0  0  0  0  0  0  0
   -3.2010   13.7404    0.0000 F   0  0  0  0  0  0  0  0  0  0  0  0
   -5.7990   12.2404    0.0000 F   0  0  0  0  0  0  0  0  0  0  0  0
   -5.2500   14.2894    0.0000 C   0  0  0  0  0  0  0  0  0  0  0  0
   -6.5490   13.5394    0.0000 F   0  0  0  0  0  0  0  0  0  0  0  0
   -3.9510   15.0394    0.0000 F   0  0  0  0  0  0  0  0  0  0  0  0
   -6.0000   15.5885    0.0000 C   0  0  0  0  0  0  0  0  0  0  0  0
   -4.7010   16.3385    0.0000 F   0  0  0  0  0  0  0  0  0  0  0  0
   -7.2990   14.8385    0.0000 F   0  0  0  0  0  0  0  0  0  0  0  0
   -6.7500   16.8875    0.0000 C   0  0  0  0  0  0  0  0  0  0  0  0
   -7.5000   18.1865    0.0000 F   0  0  0  0  0  0  0  0  0  0  0  0
   -8.0490   16.1375    0.0000 F   0  0  0  0  0  0  0  0  0  0  0  0
   -5.4510   17.6375    0.0000 F   0  0  0  0  0  0  0  0  0  0  0  0
   -1.5000    5.1962    0.0000 C   0  0  0  0  0  0  0  0  0  0  0  0
   -3.0000    2.5981    0.0000 C   0  0  0  0  0  0  0  0  0  0  0  0
   -3.7500    3.8971    0.0000 C   0  0  0  0  0  0  0  0  0  0  0  0
   -5.2500    3.8971    0.0000 C   0  0  0  0  0  0  0  0  0  0  0  0
   -6.0000    2.5981    0.0000 C   0  0  0  0  0  0  0  0  0  0  0  0
   -5.2500    1.2990    0.0000 C   0  0  0  0  0  0  0  0  0  0  0  0
   -6.0000   -0.0000    0.0000 C   0  0  0  0  0  0  0  0  0  0  0  0
   -7.2990    0.7500    0.0000 F   0  0  0  0  0  0  0  0  0  0  0  0
   -4.7010   -0.7500    0.0000 F   0  0  0  0  0  0  0  0  0  0  0  0
   -6.7500   -1.2990    0.0000 C   0  0  0  0  0  0  0  0  0  0  0  0
   -5.4510   -2.0490    0.0000 F   0  0  0  0  0  0  0  0  0  0  0  0
   -8.0490   -0.5490    0.0000 F   0  0  0  0  0  0  0  0  0  0  0  0
   -7.5000   -2.5981    0.0000 C   0  0  0  0  0  0  0  0  0  0  0  0
   -8.7990   -1.8481    0.0000 F   0  0  0  0  0  0  0  0  0  0  0  0
   -6.2010   -3.3481    0.0000 F   0  0  0  0  0  0  0  0  0  0  0  0
   -8.2500   -3.8971    0.0000 C   0  0  0  0  0  0  0  0  0  0  0  0
   -6.9510   -4.6471    0.0000 F   0  0  0  0  0  0  0  0  0  0  0  0
   -9.5490   -3.1471    0.0000 F   0  0  0  0  0  0  0  0  0  0  0  0
   -9.0000   -5.1962    0.0000 C   0  0  0  0  0  0  0  0  0  0  0  0
  -10.2990   -4.4462    0.0000 F   0  0  0  0  0  0  0  0  0  0  0  0
   -7.7010   -5.9462    0.0000 F   0  0  0  0  0  0  0  0  0  0  0  0
   -9.7500   -6.4952    0.0000 C   0  0  0  0  0  0  0  0  0  0  0  0
   -8.4510   -7.2452    0.0000 F   0  0  0  0  0  0  0  0  0  0  0  0
  -11.0490   -5.7452    0.0000 F   0  0  0  0  0  0  0  0  0  0  0  0
  -10.5000   -7.7942    0.0000 C   0  0  0  0  0  0  0  0  0  0  0  0
  -11.7990   -7.0442    0.0000 F   0  0  0  0  0  0  0  0  0  0  0  0
   -9.2010   -8.5442    0.0000 F   0  0  0  0  0  0  0  0  0  0  0  0
  -11.2500   -9.0933    0.0000 C   0  0  0  0  0  0  0  0  0  0  0  0
  -12.0000  -10.3923    0.0000 F   0  0  0  0  0  0  0  0  0  0  0  0
   -9.9510   -9.8433    0.0000 F   0  0  0  0  0  0  0  0  0  0  0  0
  -12.5490   -8.3433    0.0000 F   0  0  0  0  0  0  0  0  0  0  0  0
   -3.7500    1.2990    0.0000 C   0  0  0  0  0  0  0  0  0  0  0  0
    0.7500    1.2990    0.0000 C   0  0  0  0  0  0  0  0  0  0  0  0
  1  2  1  0
  2  3  1  0
  2  4  1  0
  2  5  1  0
  5  6  1  0
  5  7  1  0
  5  8  1  0
  8  9  1  0
  8 10  1  0
  8 11  1  0
 11 12  1  0
 11 13  1  0
 11 14  1  0
 14 15  1  0
 14 16  1  0
 14 17  1  0
 17 18  1  0
 17 19  1  0
 17 20  1  0
 20 21  1  0
 20 22  1  0
 20 23  1  0
 23 24  1  0
 23 25  1  0
 23 26  1  0
 26 27  2  0
 27 28  1  0
 28 29  2  0
 29 30  1  0
 30 31  1  0
 31 32  1  0
 32 33  2  0
 33 34  1  0
 34 35  2  0
 35 36  1  0
 36 37  1  0
 37 38  1  0
 37 39  1  0
 37 40  1  0
 40 41  1  0
 40 42  1  0
 40 43  1  0
 43 44  1  0
 43 45  1  0
 43 46  1  0
 46 47  1  0
 46 48  1  0
 46 49  1  0
 49 50  1  0
 49 51  1  0
 49 52  1  0
 52 53  1  0
 52 54  1  0
 52 55  1  0
 55 56  1  0
 55 57  1  0
 55 58  1  0
 58 59  1  0
 58 60  1  0
 58 61  1  0
 36 62  2  0
 31 63  1  0
 63 64  2  0
 64 65  1  0
 65 66  2  0
 66 67  1  0
 67 68  1  0
 68 69  1  0
 68 70  1  0
 68 71  1  0
 71 72  1  0
 71 73  1  0
 71 74  1  0
 74 75  1  0
 74 76  1  0
 74 77  1  0
 77 78  1  0
 77 79  1  0
 77 80  1  0
 80 81  1  0
 80 82  1  0
 80 83  1  0
 83 84  1  0
 83 85  1  0
 83 86  1  0
 86 87  1  0
 86 88  1  0
 86 89  1  0
 89 90  1  0
 89 91  1  0
 89 92  1  0
 67 93  2  0
 30 94  2  0
 94 26  1  0
 62 32  1  0
 93 63  1  0
M  END
$$$$

     RDKit          2D

 17 17  0  0  0  0  0  0  0  0999 V2000
    3.7500    1.2990    0.0000 O   0  0  0  0  0  0  0  0  0  0  0  0
    3.0000    0.0000    0.0000 C   0  0  0  0  0  0  0  0  0  0  0  0
    3.7500   -1.2990    0.0000 O   0  0  0  0  0  0  0  0  0  0  0  0
    5.2500   -1.2990    0.0000 C   0  0  0  0  0  0  0  0  0  0  0  0
    6.0000   -2.5981    0.0000 C   0  0  0  0  0  0  0  0  0  0  0  0
    7.2990   -1.8481    0.0000 F   0  0  0  0  0  0  0  0  0  0  0  0
    4.7010   -3.3481    0.0000 F   0  0  0  0  0  0  0  0  0  0  0  0
    6.7500   -3.8971    0.0000 C   0  0  0  0  0  0  0  0  0  0  0  0
    6.0000   -5.1962    0.0000 F   0  0  0  0  0  0  0  0  0  0  0  0
    8.2500   -3.8971    0.0000 F   0  0  0  0  0  0  0  0  0  0  0  0
    1.5000    0.0000    0.0000 C   0  0  0  0  0  0  0  0  0  0  0  0
    0.7500   -1.2990    0.0000 C   0  0  0  0  0  0  0  0  0  0  0  0
   -0.7500   -1.2990    0.0000 C   0  0  0  0  0  0  0  0  0  0  0  0
   -1.5000    0.0000    0.0000 C   0  0  0  0  0  0  0  0  0  0  0  0
   -3.0000    0.0000    0.0000 Cl  0  0  0  0  0  0  0  0  0  0  0  0
   -0.7500    1.2990    0.0000 C   0  0  0  0  0  0  0  0  0  0  0  0
    0.7500    1.2990    0.0000 C   0  0  0  0  0  0  0  0  0  0  0  0
  1  2  2  0
  2  3  1  0
  3  4  1  0
  4  5  1  0
  5  6  1  0
  5  7  1  0
  5  8  1  0
  8  9  1  0
  8 10  1  0
  2 11  1  0
 11 12  2  0
 12 13  1  0
 13 14  2  0
 14 15  1  0
 14 16  1  0
 16 17  2  0
 17 11  1  0
M  END
$$$$

     RDKit          2D

 38 40  0  0  0  0  0  0  0  0999 V2000
    6.0360   -1.7376    0.0000 C   0  0  0  0  0  0  0  0  0  0  0  0
    6.5490   -3.1471    0.0000 C   0  0  0  0  0  0  0  0  0  0  0  0
    8.0262   -2.8866    0.0000 C   0  0  0  0  0  0  0  0  0  0  0  0
    5.2500   -3.8971    0.0000 C   0  0  0  0  0  0  0  0  0  0  0  0
    3.7500   -3.8971    0.0000 C   0  0  0  0  0  0  0  0  0  0  0  0
    3.0000   -5.1962    0.0000 O   0  0  0  0  0  0  0  0  0  0  0  0
    3.0000   -2.5981    0.0000 O   0  0  0  0  0  0  0  0  0  0  0  0
    1.5000   -2.5981    0.0000 C   0  0  0  0  0  0  0  0  0  0  0  0
    0.7500   -3.8971    0.0000 C   0  0  0  0  0  0  0  0  0  0  0  0
   -0.0000   -5.1962    0.0000 N   0  0  0  0  0  0  0  0  0  0  0  0
    0.7500   -1.2990    0.0000 C   0  0  0  0  0  0  0  0  0  0  0  0
    1.5000    0.0000    0.0000 C   0  0  0  0  0  0  0  0  0  0  0  0
    0.7500    1.2990    0.0000 C   0  0  0  0  0  0  0  0  0  0  0  0
   -0.7500    1.2990    0.0000 C   0  0  0  0  0  0  0  0  0  0  0  0
   -1.5000    0.0000    0.0000 C   0  0  0  0  0  0  0  0  0  0  0  0
   -3.0000    0.0000    0.0000 O   0  0  0  0  0  0  0  0  0  0  0  0
   -3.7500    1.2990    0.0000 C   0  0  0  0  0  0  0  0  0  0  0  0
   -3.0000    2.5981    0.0000 C   0  0  0  0  0  0  0  0  0  0  0  0
   -3.7500    3.8971    0.0000 C   0  0  0  0  0  0  0  0  0  0  0  0
   -5.2500    3.8971    0.0000 C   0  0  0  0  0  0  0  0  0  0  0  0
   -6.0000    2.5981    0.0000 C   0  0  0  0  0  0  0  0  0  0  0  0
   -5.2500    1.2990    0.0000 C   0  0  0  0  0  0  0  0  0  0  0  0
   -0.7500   -1.2990    0.0000 C   0  0  0  0  0  0  0  0  0  0  0  0
    6.5490   -4.6471    0.0000 C   0  0  0  0  0  0  0  0  0  0  0  0
    7.2990   -5.9462    0.0000 C   0  0  0  0  0  0  0  0  0  0  0  0
    8.7990   -5.9462    0.0000 C   0  0  0  0  0  0  0  0  0  0  0  0
    9.5490   -4.6471    0.0000 C   0  0  0  0  0  0  0  0  0  0  0  0
    8.7990   -3.3481    0.0000 O   0  0  0  0  0  0  0  0  0  0  0  0
   11.0490   -4.6471    0.0000 O   0  0  0  0  0  0  0  0  0  0  0  0
   11.7990   -3.3481    0.0000 C   0  0  0  0  0  0  0  0  0  0  0  0
   13.2990   -3.3481    0.0000 C   0  0  0  0  0  0  0  0  0  0  0  0
   14.7990   -3.3481    0.0000 F   0  0  0  0  0  0  0  0  0  0  0  0
   13.2990   -1.8481    0.0000 F   0  0  0  0  0  0  0  0  0  0  0  0
   13.2990   -4.8481    0.0000 F   0  0  0  0  0  0  0  0  0  0  0  0
   11.0490   -2.0490    0.0000 C   0  0  0  0  0  0  0  0  0  0  0  0
   10.2990   -0.7500    0.0000 F   0  0  0  0  0  0  0  0  0  0  0  0
   12.3481   -1.2990    0.0000 F   0  0  0  0  0  0  0  0  0  0  0  0
    9.7500   -2.7990    0.0000 F   0  0  0  0  0  0  0  0  0  0  0  0
  1  2  1  0
  2  3  1  0
  2  4  1  0
  4  5  1  1
  5  6  2  0
  5  7  1  0
  7  8  1  0
  8  9  1  6
  9 10  3  0
  8 11  1  0
 11 12  2  0
 12 13  1  0
 13 14  2  0
 14 15  1  0
 15 16  1  0
 16 17  1  0
 17 18  2  0
 18 19  1  0
 19 20  2  0
 20 21  1  0
 21 22  2  0
 15 23  2  0
  4 24  1  0
 24 25  1  1
 25 26  2  0
 26 27  1  0
 27 28  2  0
 27 29  1  0
 29 30  1  0
 30 31  1  0
 31 32  1  0
 31 33  1  0
 31 34  1  0
 30 35  1  0
 35 36  1  0
 35 37  1  0
 35 38  1  0
 24  2  1  0
 23 11  1  0
 22 17  1  0
M  END
$$$$

     RDKit          2D

 22 22  0  0  0  0  0  0  0  0999 V2000
    3.0000    0.0000    0.0000 O   0  0  0  0  0  0  0  0  0  0  0  0
    1.5000    0.0000    0.0000 C   0  0  0  0  0  0  0  0  0  0  0  0
    0.7500   -1.2990    0.0000 C   0  0  0  0  0  0  0  0  0  0  0  0
   -0.7500   -1.2990    0.0000 C   0  0  0  0  0  0  0  0  0  0  0  0
   -1.5000    0.0000    0.0000 C   0  0  0  0  0  0  0  0  0  0  0  0
   -3.0000    0.0000    0.0000 C   0  0  0  0  0  0  0  0  0  0  0  0
   -3.7500    1.2990    0.0000 N   0  0  0  0  0  0  0  0  0  0  0  0
   -5.2500    1.2990    0.0000 C   0  0  0  0  0  0  0  0  0  0  0  0
   -6.0000    2.5981    0.0000 C   0  0  0  0  0  0  0  0  0  0  0  0
   -7.2990    1.8481    0.0000 F   0  0  0  0  0  0  0  0  0  0  0  0
   -4.7010    3.3481    0.0000 F   0  0  0  0  0  0  0  0  0  0  0  0
   -6.7500    3.8971    0.0000 C   0  0  0  0  0  0  0  0  0  0  0  0
   -5.4510    4.6471    0.0000 F   0  0  0  0  0  0  0  0  0  0  0  0
   -8.0490    3.1471    0.0000 F   0  0  0  0  0  0  0  0  0  0  0  0
   -7.5000    5.1962    0.0000 C   0  0  0  0  0  0  0  0  0  0  0  0
   -6.2010    5.9462    0.0000 F   0  0  0  0  0  0  0  0  0  0  0  0
   -8.7990    4.4462    0.0000 F   0  0  0  0  0  0  0  0  0  0  0  0
   -8.2500    6.4952    0.0000 C   0  0  0  0  0  0  0  0  0  0  0  0
   -7.5000    7.7942    0.0000 F   0  0  0  0  0  0  0  0  0  0  0  0
   -9.7500    6.4952    0.0000 F   0  0  0  0  0  0  0  0  0  0  0  0
   -0.7500    1.2990    0.0000 C   0  0  0  0  0  0  0  0  0  0  0  0
    0.7500    1.2990    0.0000 C   0  0  0  0  0  0  0  0  0  0  0  0
  1  2  2  0
  2  3  1  0
  3  4  2  0
  4  5  1  0
  5  6  2  0
  6  7  1  0
  7  8  1  0
  8  9  1  0
  9 10  1  0
  9 11  1  0
  9 12  1  0
 12 13  1  0
 12 14  1  0
 12 15  1  0
 15 16  1  0
 15 17  1  0
 15 18  1  0
 18 19  1  0
 18 20  1  0
  5 21  1  0
 21 22  2  0
 22  2  1  0
M  END
$$$$

     RDKit          2D

 21 22  0  0  0  0  0  0  0  0999 V2000
    7.2760    0.0000    0.0000 F   0  0  0  0  0  0  0  0  0  0  0  0
    5.7760    0.0000    0.0000 C   0  0  0  0  0  0  0  0  0  0  0  0
    5.7760   -1.5000    0.0000 F   0  0  0  0  0  0  0  0  0  0  0  0
    5.7760    1.5000    0.0000 F   0  0  0  0  0  0  0  0  0  0  0  0
    4.2760    0.0000    0.0000 C   0  0  0  0  0  0  0  0  0  0  0  0
    4.2760    1.5000    0.0000 F   0  0  0  0  0  0  0  0  0  0  0  0
    4.2760   -1.5000    0.0000 F   0  0  0  0  0  0  0  0  0  0  0  0
    2.7760    0.0000    0.0000 C   0  0  0  0  0  0  0  0  0  0  0  0
    2.7760   -1.5000    0.0000 F   0  0  0  0  0  0  0  0  0  0  0  0
    2.7760    1.5000    0.0000 F   0  0  0  0  0  0  0  0  0  0  0  0
    1.2760    0.0000    0.0000 C   0  0  0  0  0  0  0  0  0  0  0  0
    0.3943    1.2135    0.0000 N   0  0  0  0  0  0  0  0  0  0  0  0
   -1.0323    0.7500    0.0000 C   0  0  0  0  0  0  0  0  0  0  0  0
   -2.3313    1.5000    0.0000 N   0  0  0  0  0  0  0  0  0  0  0  0
   -3.6304    0.7500    0.0000 C   0  0  0  0  0  0  0  0  0  0  0  0
   -4.9294    1.5000    0.0000 Cl  0  0  0  0  0  0  0  0  0  0  0  0
   -3.6304   -0.7500    0.0000 C   0  0  0  0  0  0  0  0  0  0  0  0
   -4.9294   -1.5000    0.0000 Cl  0  0  0  0  0  0  0  0  0  0  0  0
   -2.3313   -1.5000    0.0000 N   0  0  0  0  0  0  0  0  0  0  0  0
   -1.0323   -0.7500    0.0000 C   0  0  0  0  0  0  0  0  0  0  0  0
    0.3943   -1.2135    0.0000 N   0  0  0  0  0  0  0  0  0  0  0  0
  1  2  1  0
  2  3  1  0
  2  4  1  0
  2  5  1  0
  5  6  1  0
  5  7  1  0
  5  8  1  0
  8  9  1  0
  8 10  1  0
  8 11  1  0
 11 12  2  0
 12 13  1  0
 13 14  2  0
 14 15  1  0
 15 16  1  0
 15 17  2  0
 17 18  1  0
 17 19  1  0
 19 20  2  0
 20 21  1  0
 21 11  1  0
 20 13  1  0
M  END
$$$$

     RDKit          2D

 36 34  0  0  0  0  0  0  0  0999 V2000
    0.0000   -6.0000    0.0000 C   0  0  0  0  0  0  0  0  0  0  0  0
    1.2990   -6.7500    0.0000 C   0  0  0  0  0  0  0  0  0  0  0  0
    2.5981   -6.0000    0.0000 N   0  0  0  0  0  0  0  0  0  0  0  0
    3.8971   -6.7500    0.0000 C   0  0  0  0  0  0  0  0  0  0  0  0
    5.1962   -6.0000    0.0000 C   0  0  0  0  0  0  0  0  0  0  0  0
    5.1962   -4.5000    0.0000 O   0  0  0  0  0  0  0  0  0  0  0  0
    6.4952   -6.7500    0.0000 O   0  0  0  0  0  0  0  0  0  0  0  0
    2.5981   -4.5000    0.0000 S   0  0  0  0  0  0  0  0  0  0  0  0
    1.8069   -4.5972    0.0000 O   0  0  0  0  0  0  0  0  0  0  0  0
    4.0981   -4.5000    0.0000 O   0  0  0  0  0  0  0  0  0  0  0  0
    2.5981   -3.0000    0.0000 C   0  0  0  0  0  0  0  0  0  0  0  0
    4.0981   -3.0000    0.0000 F   0  0  0  0  0  0  0  0  0  0  0  0
    2.5981   -1.5000    0.0000 F   0  0  0  0  0  0  0  0  0  0  0  0
    1.0981   -3.0000    0.0000 C   0  0  0  0  0  0  0  0  0  0  0  0
    1.0981   -1.5000    0.0000 F   0  0  0  0  0  0  0  0  0  0  0  0
    0.9901   -3.8791    0.0000 F   0  0  0  0  0  0  0  0  0  0  0  0
   -0.4019   -3.0000    0.0000 C   0  0  0  0  0  0  0  0  0  0  0  0
   -0.4019   -1.5000    0.0000 F   0  0  0  0  0  0  0  0  0  0  0  0
   -0.4019   -4.5000    0.0000 F   0  0  0  0  0  0  0  0  0  0  0  0
   -1.9019   -3.0000    0.0000 C   0  0  0  0  0  0  0  0  0  0  0  0
   -1.9019   -4.5000    0.0000 F   0  0  0  0  0  0  0  0  0  0  0  0
   -1.9019   -1.5000    0.0000 F   0  0  0  0  0  0  0  0  0  0  0  0
   -3.4019   -3.0000    0.0000 C   0  0  0  0  0  0  0  0  0  0  0  0
   -3.4019   -4.5000    0.0000 F   0  0  0  0  0  0  0  0  0  0  0  0
   -3.4019   -1.5000    0.0000 F   0  0  0  0  0  0  0  0  0  0  0  0
   -4.9019   -3.0000    0.0000 C   0  0  0  0  0  0  0  0  0  0  0  0
   -4.9019   -1.5000    0.0000 F   0  0  0  0  0  0  0  0  0  0  0  0
   -4.9019   -4.5000    0.0000 F   0  0  0  0  0  0  0  0  0  0  0  0
   -6.4019   -3.0000    0.0000 C   0  0  0  0  0  0  0  0  0  0  0  0
   -6.4019   -4.5000    0.0000 F   0  0  0  0  0  0  0  0  0  0  0  0
   -6.4019   -1.5000    0.0000 F   0  0  0  0  0  0  0  0  0  0  0  0
   -7.9019   -3.0000    0.0000 C   0  0  0  0  0  0  0  0  0  0  0  0
   -9.4019   -3.0000    0.0000 F   0  0  0  0  0  0  0  0  0  0  0  0
   -7.9019   -1.5000    0.0000 F   0  0  0  0  0  0  0  0  0  0  0  0
   -7.9019   -4.5000    0.0000 F   0  0  0  0  0  0  0  0  0  0  0  0
    0.0000   -0.5000    0.0000 K   0  0  0  0  0 15  0  0  0  0  0  0
  1  2  1  0
  2  3  1  0
  3  4  1  0
  4  5  1  0
  5  6  2  0
  5  7  1  0
  3  8  1  0
  8  9  2  0
  8 10  2  0
  8 11  1  0
 11 12  1  0
 11 13  1  0
 11 14  1  0
 14 15  1  0
 14 16  1  0
 14 17  1  0
 17 18  1  0
 17 19  1  0
 17 20  1  0
 20 21  1  0
 20 22  1  0
 20 23  1  0
 23 24  1  0
 23 25  1  0
 23 26  1  0
 26 27  1  0
 26 28  1  0
 26 29  1  0
 29 30  1  0
 29 31  1  0
 29 32  1  0
 32 33  1  0
 32 34  1  0
 32 35  1  0
M  CHG  2   7  -1  36   1
M  END
$$$$

     RDKit          2D

 16 16  0  0  0  0  0  0  0  0999 V2000
    3.0000    0.0000    0.0000 N   0  0  0  0  0  0  0  0  0  0  0  0
    1.5000    0.0000    0.0000 C   0  0  0  0  0  0  0  0  0  0  0  0
    0.7500   -1.2990    0.0000 C   0  0  0  0  0  0  0  0  0  0  0  0
   -0.7500   -1.2990    0.0000 C   0  0  0  0  0  0  0  0  0  0  0  0
   -1.5000   -2.5981    0.0000 Cl  0  0  0  0  0  0  0  0  0  0  0  0
   -1.5000    0.0000    0.0000 C   0  0  0  0  0  0  0  0  0  0  0  0
   -3.0000    0.0000    0.0000 O   0  0  0  0  0  0  0  0  0  0  0  0
   -3.7500    1.2990    0.0000 C   0  0  0  0  0  0  0  0  0  0  0  0
   -2.4510    2.0490    0.0000 F   0  0  0  0  0  0  0  0  0  0  0  0
   -5.0490    0.5490    0.0000 F   0  0  0  0  0  0  0  0  0  0  0  0
   -4.5000    2.5981    0.0000 C   0  0  0  0  0  0  0  0  0  0  0  0
   -3.7500    3.8971    0.0000 F   0  0  0  0  0  0  0  0  0  0  0  0
   -6.0000    2.5981    0.0000 F   0  0  0  0  0  0  0  0  0  0  0  0
   -0.7500    1.2990    0.0000 C   0  0  0  0  0  0  0  0  0  0  0  0
   -1.5000    2.5981    0.0000 Cl  0  0  0  0  0  0  0  0  0  0  0  0
    0.7500    1.2990    0.0000 C   0  0  0  0  0  0  0  0  0  0  0  0
  1  2  1  0
  2  3  2  0
  3  4  1  0
  4  5  1  0
  4  6  2  0
  6  7  1  0
  7  8  1  0
  8  9  1  0
  8 10  1  0
  8 11  1  0
 11 12  1  0
 11 13  1  0
  6 14  1  0
 14 15  1  0
 14 16  2  0
 16  2  1  0
M  END
$$$$

     RDKit          2D

 27 26  0  0  0  0  0  0  0  0999 V2000
    0.0000    0.0000    0.0000 C   0  0  0  0  0  0  0  0  0  0  0  0
    1.2990    0.7500    0.0000 O   0  0  0  0  0  0  0  0  0  0  0  0
    2.5981   -0.0000    0.0000 C   0  0  0  0  0  0  0  0  0  0  0  0
    1.8481   -1.2990    0.0000 F   0  0  0  0  0  0  0  0  0  0  0  0
    3.3481    1.2990    0.0000 F   0  0  0  0  0  0  0  0  0  0  0  0
    3.8971   -0.7500    0.0000 C   0  0  0  0  0  0  0  0  0  0  0  0
    4.6471    0.5490    0.0000 F   0  0  0  0  0  0  0  0  0  0  0  0
    3.1471   -2.0490    0.0000 F   0  0  0  0  0  0  0  0  0  0  0  0
    5.1962   -1.5000    0.0000 C   0  0  0  0  0  0  0  0  0  0  0  0
    4.4462   -2.7990    0.0000 F   0  0  0  0  0  0  0  0  0  0  0  0
    5.9462   -0.2010    0.0000 F   0  0  0  0  0  0  0  0  0  0  0  0
    6.4952   -2.2500    0.0000 C   0  0  0  0  0  0  0  0  0  0  0  0
    7.2452   -0.9510    0.0000 F   0  0  0  0  0  0  0  0  0  0  0  0
    5.7452   -3.5490    0.0000 F   0  0  0  0  0  0  0  0  0  0  0  0
    7.7942   -3.0000    0.0000 C   0  0  0  0  0  0  0  0  0  0  0  0
    8.5442   -1.7010    0.0000 F   0  0  0  0  0  0  0  0  0  0  0  0
    7.0442   -4.2990    0.0000 F   0  0  0  0  0  0  0  0  0  0  0  0
    9.0933   -3.7500    0.0000 C   0  0  0  0  0  0  0  0  0  0  0  0
    8.3433   -5.0490    0.0000 F   0  0  0  0  0  0  0  0  0  0  0  0
    9.8433   -2.4510    0.0000 F   0  0  0  0  0  0  0  0  0  0  0  0
   10.3923   -4.5000    0.0000 C   0  0  0  0  0  0  0  0  0  0  0  0
   11.1423   -3.2010    0.0000 F   0  0  0  0  0  0  0  0  0  0  0  0
    9.6423   -5.7990    0.0000 F   0  0  0  0  0  0  0  0  0  0  0  0
   11.6913   -5.2500    0.0000 C   0  0  0  0  0  0  0  0  0  0  0  0
   12.9904   -6.0000    0.0000 F   0  0  0  0  0  0  0  0  0  0  0  0
   10.9413   -6.5490    0.0000 F   0  0  0  0  0  0  0  0  0  0  0  0
   12.4413   -3.9510    0.0000 F   0  0  0  0  0  0  0  0  0  0  0  0
  1  2  1  0
  2  3  1  0
  3  4  1  0
  3  5  1  0
  3  6  1  0
  6  7  1  0
  6  8  1  0
  6  9  1  0
  9 10  1  0
  9 11  1  0
  9 12  1  0
 12 13  1  0
 12 14  1  0
 12 15  1  0
 15 16  1  0
 15 17  1  0
 15 18  1  0
 18 19  1  0
 18 20  1  0
 18 21  1  0
 21 22  1  0
 21 23  1  0
 21 24  1  0
 24 25  1  0
 24 26  1  0
 24 27  1  0
M  END
$$$$

     RDKit          2D

 28 27  0  0  0  0  0  0  0  0999 V2000
   -6.4952    3.7500    0.0000 F   0  0  0  0  0  0  0  0  0  0  0  0
   -5.1962    3.0000    0.0000 C   0  0  0  0  0  0  0  0  0  0  0  0
   -4.4462    4.2990    0.0000 F   0  0  0  0  0  0  0  0  0  0  0  0
   -5.9462    1.7010    0.0000 F   0  0  0  0  0  0  0  0  0  0  0  0
   -3.8971    2.2500    0.0000 C   0  0  0  0  0  0  0  0  0  0  0  0
   -4.6471    0.9510    0.0000 F   0  0  0  0  0  0  0  0  0  0  0  0
   -3.1471    3.5490    0.0000 F   0  0  0  0  0  0  0  0  0  0  0  0
   -2.5981    1.5000    0.0000 C   0  0  0  0  0  0  0  0  0  0  0  0
   -1.8481    2.7990    0.0000 F   0  0  0  0  0  0  0  0  0  0  0  0
   -3.3481    0.2010    0.0000 F   0  0  0  0  0  0  0  0  0  0  0  0
   -1.2990    0.7500    0.0000 C   0  0  0  0  0  0  0  0  0  0  0  0
   -2.0490   -0.5490    0.0000 F   0  0  0  0  0  0  0  0  0  0  0  0
   -0.5490    2.0490    0.0000 F   0  0  0  0  0  0  0  0  0  0  0  0
    0.0000    0.0000    0.0000 C   0  0  0  0  0  0  0  0  0  0  0  0
    1.2990    0.7500    0.0000 C   0  0  0  0  0  0  0  0  0  0  0  0
    2.5981   -0.0000    0.0000 C   0  0  0  0  0  0  0  0  0  0  0  0
    3.3481    1.2990    0.0000 F   0  0  0  0  0  0  0  0  0  0  0  0
    1.8481   -1.2990    0.0000 F   0  0  0  0  0  0  0  0  0  0  0  0
    3.8971   -0.7500    0.0000 C   0  0  0  0  0  0  0  0  0  0  0  0
    3.1471   -2.0490    0.0000 F   0  0  0  0  0  0  0  0  0  0  0  0
    4.6471    0.5490    0.0000 F   0  0  0  0  0  0  0  0  0  0  0  0
    5.1962   -1.5000    0.0000 C   0  0  0  0  0  0  0  0  0  0  0  0
    5.9462   -0.2010    0.0000 F   0  0  0  0  0  0  0  0  0  0  0  0
    4.4462   -2.7990    0.0000 F   0  0  0  0  0  0  0  0  0  0  0  0
    6.4952   -2.2500    0.0000 C   0  0  0  0  0  0  0  0  0  0  0  0
    7.7942   -3.0000    0.0000 F   0  0  0  0  0  0  0  0  0  0  0  0
    5.7452   -3.5490    0.0000 F   0  0  0  0  0  0  0  0  0  0  0  0
    7.2452   -0.9510    0.0000 F   0  0  0  0  0  0  0  0  0  0  0  0
  1  2  1  0
  2  3  1  0
  2  4  1  0
  2  5  1  0
  5  6  1  0
  5  7  1  0
  5  8  1  0
  8  9  1  0
  8 10  1  0
  8 11  1  0
 11 12  1  0
 11 13  1  0
 11 14  1  0
 14 15  1  0
 15 16  1  0
 16 17  1  0
 16 18  1  0
 16 19  1  0
 19 20  1  0
 19 21  1  0
 19 22  1  0
 22 23  1  0
 22 24  1  0
 22 25  1  0
 25 26  1  0
 25 27  1  0
 25 28  1  0
M  END
$$$$

     RDKit          2D

 23 23  0  0  0  0  0  0  0  0999 V2000
    6.0000   -2.5981    0.0000 F   0  0  0  0  0  0  0  0  0  0  0  0
    4.5000   -2.5981    0.0000 C   0  0  0  0  0  0  0  0  0  0  0  0
    3.7500   -3.8971    0.0000 O   0  0  0  0  0  0  0  0  0  0  0  0
    4.5000   -5.1962    0.0000 C   0  0  0  0  0  0  0  0  0  0  0  0
    5.7990   -4.4462    0.0000 F   0  0  0  0  0  0  0  0  0  0  0  0
    3.2010   -5.9462    0.0000 F   0  0  0  0  0  0  0  0  0  0  0  0
    5.2500   -6.4952    0.0000 C   0  0  0  0  0  0  0  0  0  0  0  0
    6.5490   -5.7452    0.0000 F   0  0  0  0  0  0  0  0  0  0  0  0
    3.9510   -7.2452    0.0000 F   0  0  0  0  0  0  0  0  0  0  0  0
    6.0000   -7.7942    0.0000 C   0  0  0  0  0  0  0  0  0  0  0  0
    6.7500   -9.0933    0.0000 F   0  0  0  0  0  0  0  0  0  0  0  0
    4.7010   -8.5442    0.0000 F   0  0  0  0  0  0  0  0  0  0  0  0
    7.2990   -7.0442    0.0000 F   0  0  0  0  0  0  0  0  0  0  0  0
    3.7500   -1.2990    0.0000 C   0  0  0  0  0  0  0  0  0  0  0  0
    2.4510   -2.0490    0.0000 F   0  0  0  0  0  0  0  0  0  0  0  0
    5.0490   -0.5490    0.0000 F   0  0  0  0  0  0  0  0  0  0  0  0
    3.0000    0.0000    0.0000 O   0  0  0  0  0  0  0  0  0  0  0  0
    1.5000    0.0000    0.0000 C   0  0  0  0  0  0  0  0  0  0  0  0
    0.7500   -1.2990    0.0000 C   0  0  0  0  0  0  0  0  0  0  0  0
   -0.7500   -1.2990    0.0000 C   0  0  0  0  0  0  0  0  0  0  0  0
   -1.5000    0.0000    0.0000 C   0  0  0  0  0  0  0  0  0  0  0  0
   -0.7500    1.2990    0.0000 C   0  0  0  0  0  0  0  0  0  0  0  0
    0.7500    1.2990    0.0000 C   0  0  0  0  0  0  0  0  0  0  0  0
  1  2  1  0
  2  3  1  0
  3  4  1  0
  4  5  1  0
  4  6  1  0
  4  7  1  0
  7  8  1  0
  7  9  1  0
  7 10  1  0
 10 11  1  0
 10 12  1  0
 10 13  1  0
  2 14  1  0
 14 15  1  0
 14 16  1  0
 14 17  1  0
 17 18  1  0
 18 19  2  0
 19 20  1  0
 20 21  2  0
 21 22  1  0
 22 23  2  0
 23 18  1  0
M  END
$$$$

     RDKit          2D

 15 14  0  0  0  0  0  0  0  0999 V2000
    0.0000    0.0000    0.0000 C   0  0  0  0  0  0  0  0  0  0  0  0
    1.2990    0.7500    0.0000 C   0  0  0  0  0  0  0  0  0  0  0  0
    2.5981    1.5000    0.0000 C   0  0  0  0  0  0  0  0  0  0  0  0
    2.0490   -0.5490    0.0000 C   0  0  0  0  0  0  0  0  0  0  0  0
    0.5490    2.0490    0.0000 C   0  0  0  0  0  0  0  0  0  0  0  0
    1.2990    3.3481    0.0000 C   0  0  0  0  0  0  0  0  0  0  0  0
    0.5490    4.6471    0.0000 C   0  0  0  0  0  0  0  0  0  0  0  0
    1.2990    5.9462    0.0000 C   0  0  0  0  0  0  0  0  0  0  0  0
    2.0490    7.2452    0.0000 F   0  0  0  0  0  0  0  0  0  0  0  0
    0.0000    6.6962    0.0000 F   0  0  0  0  0  0  0  0  0  0  0  0
    2.5981    5.1962    0.0000 F   0  0  0  0  0  0  0  0  0  0  0  0
   -0.9510    4.6471    0.0000 C   0  0  0  0  0  0  0  0  0  0  0  0
   -2.4510    4.6471    0.0000 F   0  0  0  0  0  0  0  0  0  0  0  0
   -0.9510    6.1471    0.0000 F   0  0  0  0  0  0  0  0  0  0  0  0
   -0.9510    3.1471    0.0000 F   0  0  0  0  0  0  0  0  0  0  0  0
  1  2  1  0
  2  3  1  0
  2  4  1  0
  2  5  1  0
  5  6  1  0
  6  7  2  0
  7  8  1  0
  8  9  1  0
  8 10  1  0
  8 11  1  0
  7 12  1  0
 12 13  1  0
 12 14  1  0
 12 15  1  0
M  END
$$$$

     RDKit          2D

 16 15  0  0  0  0  0  0  0  0999 V2000
    0.0000    0.0000    0.0000 C   0  0  0  0  0  0  0  0  0  0  0  0
    1.2990    0.7500    0.0000 C   0  0  0  0  0  0  0  0  0  0  0  0
    2.5981   -0.0000    0.0000 S   0  0  0  0  0  0  0  0  0  0  0  0
    3.8971    0.7500    0.0000 C   0  0  0  0  0  0  0  0  0  0  0  0
    3.8971    2.2500    0.0000 S   0  0  0  0  0  0  0  0  0  0  0  0
    5.1962    3.0000    0.0000 C   0  0  0  0  0  0  0  0  0  0  0  0
    5.1962    4.5000    0.0000 C   0  0  0  0  0  0  0  0  0  0  0  0
    5.1962   -0.0000    0.0000 C   0  0  0  0  0  0  0  0  0  0  0  0
    5.1962   -1.5000    0.0000 F   0  0  0  0  0  0  0  0  0  0  0  0
    6.4952    0.7500    0.0000 C   0  0  0  0  0  0  0  0  0  0  0  0
    7.2452   -0.5490    0.0000 F   0  0  0  0  0  0  0  0  0  0  0  0
    5.7452    2.0490    0.0000 F   0  0  0  0  0  0  0  0  0  0  0  0
    7.7942    1.5000    0.0000 C   0  0  0  0  0  0  0  0  0  0  0  0
    9.0933    2.2500    0.0000 F   0  0  0  0  0  0  0  0  0  0  0  0
    8.5442    0.2010    0.0000 F   0  0  0  0  0  0  0  0  0  0  0  0
    7.0442    2.7990    0.0000 F   0  0  0  0  0  0  0  0  0  0  0  0
  1  2  1  0
  2  3  1  0
  3  4  1  0
  4  5  1  0
  5  6  1  0
  6  7  1  0
  4  8  2  0
  8  9  1  0
  8 10  1  0
 10 11  1  0
 10 12  1  0
 10 13  1  0
 13 14  1  0
 13 15  1  0
 13 16  1  0
M  END
$$$$

     RDKit          2D

 13 12  0  0  0  0  0  0  0  0999 V2000
    0.0000    0.0000    0.0000 C   0  0  0  0  0  0  0  0  0  0  0  0
    1.2990    0.7500    0.0000 C   0  0  0  0  0  0  0  0  0  0  0  0
    2.5981    1.5000    0.0000 C   0  0  0  0  0  0  0  0  0  0  0  0
    2.0490   -0.5490    0.0000 C   0  0  0  0  0  0  0  0  0  0  0  0
    0.5490    2.0490    0.0000 C   0  0  0  0  0  0  0  0  0  0  0  0
    1.8481    2.7990    0.0000 F   0  0  0  0  0  0  0  0  0  0  0  0
   -0.7500    1.2990    0.0000 F   0  0  0  0  0  0  0  0  0  0  0  0
   -0.2010    3.3481    0.0000 C   0  0  0  0  0  0  0  0  0  0  0  0
    0.5490    4.6471    0.0000 F   0  0  0  0  0  0  0  0  0  0  0  0
   -1.7010    3.3481    0.0000 C   0  0  0  0  0  0  0  0  0  0  0  0
   -3.2010    3.3481    0.0000 F   0  0  0  0  0  0  0  0  0  0  0  0
   -1.7010    4.8481    0.0000 F   0  0  0  0  0  0  0  0  0  0  0  0
   -1.7010    1.8481    0.0000 F   0  0  0  0  0  0  0  0  0  0  0  0
  1  2  1  0
  2  3  1  0
  2  4  1  0
  2  5  1  0
  5  6  1  0
  5  7  1  0
  5  8  1  0
  8  9  1  0
  8 10  1  0
 10 11  1  0
 10 12  1  0
 10 13  1  0
M  END
$$$$

     RDKit          2D

 26 25  0  0  0  0  0  0  0  0999 V2000
   -2.0490   -6.1471    0.0000 O   0  0  0  0  0  0  0  0  0  0  0  0
   -3.3481   -5.3971    0.0000 S   0  0  0  0  0  0  0  0  0  0  0  0
   -2.8683   -4.7605    0.0000 O   0  0  0  0  0  0  0  0  0  0  0  0
   -4.0981   -6.6962    0.0000 F   0  0  0  0  0  0  0  0  0  0  0  0
   -4.6471   -4.6471    0.0000 C   0  0  0  0  0  0  0  0  0  0  0  0
   -5.3971   -5.9462    0.0000 F   0  0  0  0  0  0  0  0  0  0  0  0
   -5.9462   -3.8971    0.0000 F   0  0  0  0  0  0  0  0  0  0  0  0
   -3.8971   -3.3481    0.0000 C   0  0  0  0  0  0  0  0  0  0  0  0
   -5.2779   -2.7620    0.0000 F   0  0  0  0  0  0  0  0  0  0  0  0
   -3.0818   -3.6941    0.0000 F   0  0  0  0  0  0  0  0  0  0  0  0
   -3.1471   -2.0490    0.0000 O   0  0  0  0  0  0  0  0  0  0  0  0
   -3.8971   -0.7500    0.0000 C   0  0  0  0  0  0  0  0  0  0  0  0
   -4.6471    0.5490    0.0000 F   0  0  0  0  0  0  0  0  0  0  0  0
   -5.1962   -1.5000    0.0000 C   0  0  0  0  0  0  0  0  0  0  0  0
   -6.4952   -2.2500    0.0000 F   0  0  0  0  0  0  0  0  0  0  0  0
   -5.9462   -0.2010    0.0000 F   0  0  0  0  0  0  0  0  0  0  0  0
   -4.9616   -2.9816    0.0000 F   0  0  0  0  0  0  0  0  0  0  0  0
   -2.5981    0.0000    0.0000 C   0  0  0  0  0  0  0  0  0  0  0  0
   -1.8481   -1.2990    0.0000 F   0  0  0  0  0  0  0  0  0  0  0  0
   -3.3481    1.2990    0.0000 F   0  0  0  0  0  0  0  0  0  0  0  0
   -1.2990    0.7500    0.0000 O   0  0  0  0  0  0  0  0  0  0  0  0
    0.0000    0.0000    0.0000 C   0  0  0  0  0  0  0  0  0  0  0  0
   -0.0000   -1.5000    0.0000 F   0  0  0  0  0  0  0  0  0  0  0  0
    1.2990    0.7500    0.0000 C   0  0  0  0  0  0  0  0  0  0  0  0
    2.5981   -0.0000    0.0000 F   0  0  0  0  0  0  0  0  0  0  0  0
    1.2990    2.2500    0.0000 F   0  0  0  0  0  0  0  0  0  0  0  0
  1  2  2  0
  2  3  2  0
  2  4  1  0
  2  5  1  0
  5  6  1  0
  5  7  1  0
  5  8  1  0
  8  9  1  0
  8 10  1  0
  8 11  1  0
 11 12  1  0
 12 13  1  0
 12 14  1  0
 14 15  1  0
 14 16  1  0
 14 17  1  0
 12 18  1  0
 18 19  1  0
 18 20  1  0
 18 21  1  0
 21 22  1  0
 22 23  1  0
 22 24  2  0
 24 25  1  0
 24 26  1  0
M  END
$$$$

     RDKit          2D

 14 13  0  0  0  0  0  0  0  0999 V2000
    0.0000    0.0000    0.0000 C   0  0  0  0  0  0  0  0  0  0  0  0
    1.2990    0.7500    0.0000 O   0  0  0  0  0  0  0  0  0  0  0  0
    2.5981   -0.0000    0.0000 C   0  0  0  0  0  0  0  0  0  0  0  0
    2.5981   -1.5000    0.0000 O   0  0  0  0  0  0  0  0  0  0  0  0
    3.8971    0.7500    0.0000 C   0  0  0  0  0  0  0  0  0  0  0  0
    5.1962   -0.0000    0.0000 C   0  0  0  0  0  0  0  0  0  0  0  0
    6.4952    0.7500    0.0000 C   0  0  0  0  0  0  0  0  0  0  0  0
    7.7942    1.5000    0.0000 F   0  0  0  0  0  0  0  0  0  0  0  0
    7.2452   -0.5490    0.0000 F   0  0  0  0  0  0  0  0  0  0  0  0
    5.7452    2.0490    0.0000 F   0  0  0  0  0  0  0  0  0  0  0  0
    5.1962   -1.5000    0.0000 C   0  0  0  0  0  0  0  0  0  0  0  0
    5.1962   -3.0000    0.0000 F   0  0  0  0  0  0  0  0  0  0  0  0
    6.6962   -1.5000    0.0000 F   0  0  0  0  0  0  0  0  0  0  0  0
    3.6962   -1.5000    0.0000 F   0  0  0  0  0  0  0  0  0  0  0  0
  1  2  1  0
  2  3  1  0
  3  4  2  0
  3  5  1  0
  5  6  2  0
  6  7  1  0
  7  8  1  0
  7  9  1  0
  7 10  1  0
  6 11  1  0
 11 12  1  0
 11 13  1  0
 11 14  1  0
M  END
$$$$

     RDKit          2D

 20 19  0  0  0  0  0  0  0  0999 V2000
    0.0000    0.0000    0.0000 C   0  0  0  0  0  0  0  0  0  0  0  0
    1.2990    0.7500    0.0000 Si  0  0  0  0  0  4  0  0  0  0  0  0
    2.5981    1.5000    0.0000 C   0  0  0  0  0  0  0  0  0  0  0  0
    2.0490   -0.5490    0.0000 C   0  0  0  0  0  0  0  0  0  0  0  0
    0.5490    2.0490    0.0000 C   0  0  0  0  0  0  0  0  0  0  0  0
   -0.9510    2.0490    0.0000 I   0  0  0  0  0  0  0  0  0  0  0  0
    1.2990    3.3481    0.0000 C   0  0  0  0  0  0  0  0  0  0  0  0
    0.5490    4.6471    0.0000 C   0  0  0  0  0  0  0  0  0  0  0  0
    1.8481    5.3971    0.0000 F   0  0  0  0  0  0  0  0  0  0  0  0
   -0.7500    3.8971    0.0000 F   0  0  0  0  0  0  0  0  0  0  0  0
   -0.2010    5.9462    0.0000 C   0  0  0  0  0  0  0  0  0  0  0  0
   -1.5000    5.1962    0.0000 F   0  0  0  0  0  0  0  0  0  0  0  0
    1.0981    6.6962    0.0000 F   0  0  0  0  0  0  0  0  0  0  0  0
   -0.9510    7.2452    0.0000 C   0  0  0  0  0  0  0  0  0  0  0  0
    0.3481    7.9952    0.0000 F   0  0  0  0  0  0  0  0  0  0  0  0
   -2.2500    6.4952    0.0000 F   0  0  0  0  0  0  0  0  0  0  0  0
   -1.7010    8.5442    0.0000 C   0  0  0  0  0  0  0  0  0  0  0  0
   -2.4510    9.8433    0.0000 F   0  0  0  0  0  0  0  0  0  0  0  0
   -3.0000    7.7942    0.0000 F   0  0  0  0  0  0  0  0  0  0  0  0
   -0.4019    9.2942    0.0000 Cl  0  0  0  0  0  0  0  0  0  0  0  0
  1  2  1  0
  2  3  1  0
  2  4  1  0
  2  5  1  0
  5  6  1  0
  5  7  1  0
  7  8  1  0
  8  9  1  0
  8 10  1  0
  8 11  1  0
 11 12  1  0
 11 13  1  0
 11 14  1  0
 14 15  1  0
 14 16  1  0
 14 17  1  0
 17 18  1  0
 17 19  1  0
 17 20  1  0
M  END
$$$$

     RDKit          2D

 15 14  0  0  0  0  0  0  0  0999 V2000
    0.0000    0.0000    0.0000 C   0  0  0  0  0  0  0  0  0  0  0  0
    1.2990    0.7500    0.0000 C   0  0  0  0  0  0  0  0  0  0  0  0
    2.5981   -0.0000    0.0000 C   0  0  0  0  0  0  0  0  0  0  0  0
    3.3481    1.2990    0.0000 F   0  0  0  0  0  0  0  0  0  0  0  0
    1.8481   -1.2990    0.0000 F   0  0  0  0  0  0  0  0  0  0  0  0
    3.8971   -0.7500    0.0000 C   0  0  0  0  0  0  0  0  0  0  0  0
    3.1471   -2.0490    0.0000 F   0  0  0  0  0  0  0  0  0  0  0  0
    4.6471    0.5490    0.0000 F   0  0  0  0  0  0  0  0  0  0  0  0
    5.1962   -1.5000    0.0000 C   0  0  0  0  0  0  0  0  0  0  0  0
    5.9462   -0.2010    0.0000 F   0  0  0  0  0  0  0  0  0  0  0  0
    4.4462   -2.7990    0.0000 F   0  0  0  0  0  0  0  0  0  0  0  0
    6.4952   -2.2500    0.0000 C   0  0  0  0  0  0  0  0  0  0  0  0
    7.7942   -3.0000    0.0000 F   0  0  0  0  0  0  0  0  0  0  0  0
    5.7452   -3.5490    0.0000 F   0  0  0  0  0  0  0  0  0  0  0  0
    7.2452   -0.9510    0.0000 Cl  0  0  0  0  0  0  0  0  0  0  0  0
  1  2  2  0
  2  3  1  0
  3  4  1  0
  3  5  1  0
  3  6  1  0
  6  7  1  0
  6  8  1  0
  6  9  1  0
  9 10  1  0
  9 11  1  0
  9 12  1  0
 12 13  1  0
 12 14  1  0
 12 15  1  0
M  END
$$$$

     RDKit          2D

 17 16  0  0  0  0  0  0  0  0999 V2000
    5.5981    4.5000    0.0000 N   0  0  0  0  0  0  0  0  0  0  0  0
    4.0981    4.5000    0.0000 S   0  0  0  0  0  0  0  0  0  0  0  0
    4.0981    6.0000    0.0000 O   0  0  0  0  0  0  0  0  0  0  0  0
    4.1952    3.7088    0.0000 O   0  0  0  0  0  0  0  0  0  0  0  0
    2.5981    4.5000    0.0000 C   0  0  0  0  0  0  0  0  0  0  0  0
    2.5981    6.0000    0.0000 F   0  0  0  0  0  0  0  0  0  0  0  0
    1.0981    4.5000    0.0000 F   0  0  0  0  0  0  0  0  0  0  0  0
    2.5981    3.0000    0.0000 C   0  0  0  0  0  0  0  0  0  0  0  0
    1.0981    3.0000    0.0000 F   0  0  0  0  0  0  0  0  0  0  0  0
    3.4772    2.8920    0.0000 F   0  0  0  0  0  0  0  0  0  0  0  0
    2.5981    1.5000    0.0000 O   0  0  0  0  0  0  0  0  0  0  0  0
    1.2990    0.7500    0.0000 C   0  0  0  0  0  0  0  0  0  0  0  0
    2.0490   -0.5490    0.0000 F   0  0  0  0  0  0  0  0  0  0  0  0
    0.5490    2.0490    0.0000 F   0  0  0  0  0  0  0  0  0  0  0  0
    0.0000    0.0000    0.0000 C   0  0  0  0  0  0  0  0  0  0  0  0
   -1.2990    0.7500    0.0000 F   0  0  0  0  0  0  0  0  0  0  0  0
   -0.0000   -1.5000    0.0000 F   0  0  0  0  0  0  0  0  0  0  0  0
  1  2  1  0
  2  3  2  0
  2  4  2  0
  2  5  1  0
  5  6  1  0
  5  7  1  0
  5  8  1  0
  8  9  1  0
  8 10  1  0
  8 11  1  0
 11 12  1  0
 12 13  1  0
 12 14  1  0
 12 15  1  0
 15 16  1  0
 15 17  1  0
M  END
$$$$

     RDKit          2D

 20 20  0  0  0  0  0  0  0  0999 V2000
    3.0000    0.0000    0.0000 N   0  0  0  0  0  0  0  0  0  0  0  0
    1.5000    0.0000    0.0000 C   0  0  0  0  0  0  0  0  0  0  0  0
    0.7500   -1.2990    0.0000 C   0  0  0  0  0  0  0  0  0  0  0  0
   -0.7500   -1.2990    0.0000 C   0  0  0  0  0  0  0  0  0  0  0  0
   -1.5000    0.0000    0.0000 C   0  0  0  0  0  0  0  0  0  0  0  0
   -3.0000    0.0000    0.0000 C   0  0  0  0  0  0  0  0  0  0  0  0
   -3.0000    1.5000    0.0000 F   0  0  0  0  0  0  0  0  0  0  0  0
   -3.0000   -1.5000    0.0000 F   0  0  0  0  0  0  0  0  0  0  0  0
   -4.5000    0.0000    0.0000 C   0  0  0  0  0  0  0  0  0  0  0  0
   -4.5000   -1.5000    0.0000 F   0  0  0  0  0  0  0  0  0  0  0  0
   -4.5000    1.5000    0.0000 F   0  0  0  0  0  0  0  0  0  0  0  0
   -6.0000    0.0000    0.0000 C   0  0  0  0  0  0  0  0  0  0  0  0
   -6.0000    1.5000    0.0000 F   0  0  0  0  0  0  0  0  0  0  0  0
   -6.0000   -1.5000    0.0000 F   0  0  0  0  0  0  0  0  0  0  0  0
   -7.5000    0.0000    0.0000 C   0  0  0  0  0  0  0  0  0  0  0  0
   -9.0000    0.0000    0.0000 F   0  0  0  0  0  0  0  0  0  0  0  0
   -7.5000   -1.5000    0.0000 F   0  0  0  0  0  0  0  0  0  0  0  0
   -7.5000    1.5000    0.0000 F   0  0  0  0  0  0  0  0  0  0  0  0
   -0.7500    1.2990    0.0000 C   0  0  0  0  0  0  0  0  0  0  0  0
    0.7500    1.2990    0.0000 C   0  0  0  0  0  0  0  0  0  0  0  0
  1  2  1  0
  2  3  2  0
  3  4  1  0
  4  5  2  0
  5  6  1  0
  6  7  1  0
  6  8  1  0
  6  9  1  0
  9 10  1  0
  9 11  1  0
  9 12  1  0
 12 13  1  0
 12 14  1  0
 12 15  1  0
 15 16  1  0
 15 17  1  0
 15 18  1  0
  5 19  1  0
 19 20  2  0
 20  2  1  0
M  END
$$$$

     RDKit          2D

 32 32  0  0  0  0  0  0  0  0999 V2000
    3.0000    0.0000    0.0000 O   0  0  0  0  0  0  0  0  0  0  0  0
    1.5000    0.0000    0.0000 C   0  0  0  0  0  0  0  0  0  0  0  0
    0.7500   -1.2990    0.0000 C   0  0  0  0  0  0  0  0  0  0  0  0
   -0.7500   -1.2990    0.0000 C   0  0  0  0  0  0  0  0  0  0  0  0
   -1.5000    0.0000    0.0000 C   0  0  0  0  0  0  0  0  0  0  0  0
   -3.0000    0.0000    0.0000 C   0  0  0  0  0  0  0  0  0  0  0  0
   -3.0000    1.5000    0.0000 F   0  0  0  0  0  0  0  0  0  0  0  0
   -3.0000   -1.5000    0.0000 F   0  0  0  0  0  0  0  0  0  0  0  0
   -4.5000    0.0000    0.0000 C   0  0  0  0  0  0  0  0  0  0  0  0
   -4.5000   -1.5000    0.0000 F   0  0  0  0  0  0  0  0  0  0  0  0
   -4.5000    1.5000    0.0000 F   0  0  0  0  0  0  0  0  0  0  0  0
   -6.0000    0.0000    0.0000 C   0  0  0  0  0  0  0  0  0  0  0  0
   -6.0000    1.5000    0.0000 F   0  0  0  0  0  0  0  0  0  0  0  0
   -6.0000   -1.5000    0.0000 F   0  0  0  0  0  0  0  0  0  0  0  0
   -7.5000    0.0000    0.0000 C   0  0  0  0  0  0  0  0  0  0  0  0
   -7.5000   -1.5000    0.0000 F   0  0  0  0  0  0  0  0  0  0  0  0
   -7.5000    1.5000    0.0000 F   0  0  0  0  0  0  0  0  0  0  0  0
   -9.0000    0.0000    0.0000 C   0  0  0  0  0  0  0  0  0  0  0  0
   -9.0000    1.5000    0.0000 F   0  0  0  0  0  0  0  0  0  0  0  0
   -9.0000   -1.5000    0.0000 F   0  0  0  0  0  0  0  0  0  0  0  0
  -10.5000    0.0000    0.0000 C   0  0  0  0  0  0  0  0  0  0  0  0
  -10.5000   -1.5000    0.0000 F   0  0  0  0  0  0  0  0  0  0  0  0
  -10.5000    1.5000    0.0000 F   0  0  0  0  0  0  0  0  0  0  0  0
  -12.0000    0.0000    0.0000 C   0  0  0  0  0  0  0  0  0  0  0  0
  -12.0000    1.5000    0.0000 F   0  0  0  0  0  0  0  0  0  0  0  0
  -12.0000   -1.5000    0.0000 F   0  0  0  0  0  0  0  0  0  0  0  0
  -13.5000    0.0000    0.0000 C   0  0  0  0  0  0  0  0  0  0  0  0
  -15.0000    0.0000    0.0000 F   0  0  0  0  0  0  0  0  0  0  0  0
  -13.5000   -1.5000    0.0000 F   0  0  0  0  0  0  0  0  0  0  0  0
  -13.5000    1.5000    0.0000 F   0  0  0  0  0  0  0  0  0  0  0  0
   -0.7500    1.2990    0.0000 C   0  0  0  0  0  0  0  0  0  0  0  0
    0.7500    1.2990    0.0000 C   0  0  0  0  0  0  0  0  0  0  0  0
  1  2  1  0
  2  3  2  0
  3  4  1  0
  4  5  2  0
  5  6  1  0
  6  7  1  0
  6  8  1  0
  6  9  1  0
  9 10  1  0
  9 11  1  0
  9 12  1  0
 12 13  1  0
 12 14  1  0
 12 15  1  0
 15 16  1  0
 15 17  1  0
 15 18  1  0
 18 19  1  0
 18 20  1  0
 18 21  1  0
 21 22  1  0
 21 23  1  0
 21 24  1  0
 24 25  1  0
 24 26  1  0
 24 27  1  0
 27 28  1  0
 27 29  1  0
 27 30  1  0
  5 31  1  0
 31 32  2  0
 32  2  1  0
M  END
$$$$

     RDKit          2D

 19 19  0  0  0  0  0  0  0  0999 V2000
    3.0000    0.0000    0.0000 C   0  0  0  0  0  0  0  0  0  0  0  0
    1.5000    0.0000    0.0000 C   0  0  0  0  0  0  0  0  0  0  0  0
    0.7500   -1.2990    0.0000 C   0  0  0  0  0  0  0  0  0  0  0  0
   -0.7500   -1.2990    0.0000 C   0  0  0  0  0  0  0  0  0  0  0  0
   -1.5000    0.0000    0.0000 C   0  0  0  0  0  0  0  0  0  0  0  0
   -3.0000    0.0000    0.0000 C   0  0  0  0  0  0  0  0  0  0  0  0
   -3.7500   -1.2990    0.0000 O   0  0  0  0  0  0  0  0  0  0  0  0
   -3.7500    1.2990    0.0000 N   0  0  0  0  0  0  0  0  0  0  0  0
   -5.2500    1.2990    0.0000 C   0  0  0  0  0  0  0  0  0  0  0  0
   -6.0000    2.5981    0.0000 C   0  0  0  0  0  0  0  0  0  0  0  0
   -6.7500    3.8971    0.0000 F   0  0  0  0  0  0  0  0  0  0  0  0
   -7.2990    1.8481    0.0000 F   0  0  0  0  0  0  0  0  0  0  0  0
   -4.7010    3.3481    0.0000 F   0  0  0  0  0  0  0  0  0  0  0  0
   -6.0000   -0.0000    0.0000 C   0  0  0  0  0  0  0  0  0  0  0  0
   -6.7500   -1.2990    0.0000 F   0  0  0  0  0  0  0  0  0  0  0  0
   -7.2990    0.7500    0.0000 F   0  0  0  0  0  0  0  0  0  0  0  0
   -4.7010   -0.7500    0.0000 F   0  0  0  0  0  0  0  0  0  0  0  0
   -0.7500    1.2990    0.0000 C   0  0  0  0  0  0  0  0  0  0  0  0
    0.7500    1.2990    0.0000 C   0  0  0  0  0  0  0  0  0  0  0  0
  1  2  1  0
  2  3  2  0
  3  4  1  0
  4  5  2  0
  5  6  1  0
  6  7  2  0
  6  8  1  0
  8  9  2  0
  9 10  1  0
 10 11  1  0
 10 12  1  0
 10 13  1  0
  9 14  1  0
 14 15  1  0
 14 16  1  0
 14 17  1  0
  5 18  1  0
 18 19  2  0
 19  2  1  0
M  END
$$$$

     RDKit          2D

 29 28  0  0  0  0  0  0  0  0999 V2000
    0.0000    0.0000    0.0000 C   0  0  0  0  0  0  0  0  0  0  0  0
    1.2990    0.7500    0.0000 C   0  0  0  0  0  0  0  0  0  0  0  0
    2.5981   -0.0000    0.0000 O   0  0  0  0  0  0  0  0  0  0  0  0
    3.8971    0.7500    0.0000 P   0  0  0  0  0  0  0  0  0  0  0  0
    4.6471   -0.5490    0.0000 O   0  0  0  0  0  0  0  0  0  0  0  0
    3.1471    2.0490    0.0000 C   0  0  0  0  0  0  0  0  0  0  0  0
    3.8971    3.3481    0.0000 C   0  0  0  0  0  0  0  0  0  0  0  0
    3.1471    4.6471    0.0000 C   0  0  0  0  0  0  0  0  0  0  0  0
    4.4462    5.3971    0.0000 F   0  0  0  0  0  0  0  0  0  0  0  0
    1.8481    3.8971    0.0000 F   0  0  0  0  0  0  0  0  0  0  0  0
    2.3971    5.9462    0.0000 C   0  0  0  0  0  0  0  0  0  0  0  0
    1.0981    5.1962    0.0000 F   0  0  0  0  0  0  0  0  0  0  0  0
    3.6962    6.6962    0.0000 F   0  0  0  0  0  0  0  0  0  0  0  0
    1.6471    7.2452    0.0000 C   0  0  0  0  0  0  0  0  0  0  0  0
    2.9462    7.9952    0.0000 F   0  0  0  0  0  0  0  0  0  0  0  0
    0.3481    6.4952    0.0000 F   0  0  0  0  0  0  0  0  0  0  0  0
    0.8971    8.5442    0.0000 C   0  0  0  0  0  0  0  0  0  0  0  0
   -0.4019    7.7942    0.0000 F   0  0  0  0  0  0  0  0  0  0  0  0
    2.1962    9.2942    0.0000 F   0  0  0  0  0  0  0  0  0  0  0  0
    0.1471    9.8433    0.0000 C   0  0  0  0  0  0  0  0  0  0  0  0
    1.4462   10.5933    0.0000 F   0  0  0  0  0  0  0  0  0  0  0  0
   -1.1519    9.0933    0.0000 F   0  0  0  0  0  0  0  0  0  0  0  0
   -0.6029   11.1423    0.0000 C   0  0  0  0  0  0  0  0  0  0  0  0
   -1.3529   12.4413    0.0000 F   0  0  0  0  0  0  0  0  0  0  0  0
   -1.9019   10.3923    0.0000 F   0  0  0  0  0  0  0  0  0  0  0  0
    0.6962   11.8923    0.0000 F   0  0  0  0  0  0  0  0  0  0  0  0
    5.1962    1.5000    0.0000 O   0  0  0  0  0  0  0  0  0  0  0  0
    5.1962    3.0000    0.0000 C   0  0  0  0  0  0  0  0  0  0  0  0
    6.4952    3.7500    0.0000 C   0  0  0  0  0  0  0  0  0  0  0  0
  1  2  1  0
  2  3  1  0
  3  4  1  0
  4  5  2  0
  4  6  1  0
  6  7  1  0
  7  8  1  0
  8  9  1  0
  8 10  1  0
  8 11  1  0
 11 12  1  0
 11 13  1  0
 11 14  1  0
 14 15  1  0
 14 16  1  0
 14 17  1  0
 17 18  1  0
 17 19  1  0
 17 20  1  0
 20 21  1  0
 20 22  1  0
 20 23  1  0
 23 24  1  0
 23 25  1  0
 23 26  1  0
  4 27  1  0
 27 28  1  0
 28 29  1  0
M  END
$$$$

     RDKit          2D

 17 16  0  0  0  0  0  0  0  0999 V2000
   -0.0000    3.0000    0.0000 O   0  0  0  0  0  0  0  0  0  0  0  0
   -0.0000    1.5000    0.0000 S   0  0  0  0  0  0  0  0  0  0  0  0
   -1.5000    1.5000    0.0000 O   0  0  0  0  0  0  0  0  0  0  0  0
    0.7912    1.5972    0.0000 F   0  0  0  0  0  0  0  0  0  0  0  0
    0.0000    0.0000    0.0000 C   0  0  0  0  0  0  0  0  0  0  0  0
   -1.5000   -0.0000    0.0000 F   0  0  0  0  0  0  0  0  0  0  0  0
    0.0000   -1.5000    0.0000 F   0  0  0  0  0  0  0  0  0  0  0  0
    1.5000    0.0000    0.0000 C   0  0  0  0  0  0  0  0  0  0  0  0
    1.5000   -1.5000    0.0000 F   0  0  0  0  0  0  0  0  0  0  0  0
    1.6080    0.8791    0.0000 F   0  0  0  0  0  0  0  0  0  0  0  0
    3.0000    0.0000    0.0000 C   0  0  0  0  0  0  0  0  0  0  0  0
    4.5000    0.0000    0.0000 F   0  0  0  0  0  0  0  0  0  0  0  0
    3.0000    1.5000    0.0000 F   0  0  0  0  0  0  0  0  0  0  0  0
    3.0000   -1.5000    0.0000 S   0  0  0  0  0  0  0  0  0  0  0  0
    3.0000   -3.0000    0.0000 O   0  0  0  0  0  0  0  0  0  0  0  0
    4.4888   -1.6828    0.0000 O   0  0  0  0  0  0  0  0  0  0  0  0
    4.4888   -1.3172    0.0000 F   0  0  0  0  0  0  0  0  0  0  0  0
  1  2  2  0
  2  3  2  0
  2  4  1  0
  2  5  1  0
  5  6  1  0
  5  7  1  0
  5  8  1  0
  8  9  1  0
  8 10  1  0
  8 11  1  0
 11 12  1  0
 11 13  1  0
 11 14  1  0
 14 15  2  0
 14 16  2  0
 14 17  1  0
M  END
$$$$

     RDKit          2D

 13 12  0  0  0  0  0  0  0  0999 V2000
    0.0000    0.0000    0.0000 C   0  0  0  0  0  0  0  0  0  0  0  0
    1.2990    0.7500    0.0000 C   0  0  0  0  0  0  0  0  0  0  0  0
    1.2990    2.2500    0.0000 O   0  0  0  0  0  0  0  0  0  0  0  0
    2.5981   -0.0000    0.0000 N   0  0  0  0  0  0  0  0  0  0  0  0
    3.8971    0.7500    0.0000 C   0  0  0  0  0  0  0  0  0  0  0  0
    5.1962   -0.0000    0.0000 C   0  0  0  0  0  0  0  0  0  0  0  0
    6.4952   -0.7500    0.0000 F   0  0  0  0  0  0  0  0  0  0  0  0
    5.9462    1.2990    0.0000 F   0  0  0  0  0  0  0  0  0  0  0  0
    4.4462   -1.2990    0.0000 F   0  0  0  0  0  0  0  0  0  0  0  0
    3.8971    2.2500    0.0000 C   0  0  0  0  0  0  0  0  0  0  0  0
    3.8971    3.7500    0.0000 F   0  0  0  0  0  0  0  0  0  0  0  0
    5.3971    2.2500    0.0000 F   0  0  0  0  0  0  0  0  0  0  0  0
    2.3971    2.2500    0.0000 F   0  0  0  0  0  0  0  0  0  0  0  0
  1  2  1  0
  2  3  2  0
  2  4  1  0
  4  5  1  0
  5  6  1  0
  6  7  1  0
  6  8  1  0
  6  9  1  0
  5 10  1  0
 10 11  1  0
 10 12  1  0
 10 13  1  0
M  END
$$$$

     RDKit          2D

 23 22  0  0  0  0  0  0  0  0999 V2000
    0.7912   -1.5972    0.0000 O   0  0  0  0  0  0  0  0  0  0  0  0
   -0.0000   -1.5000    0.0000 P   0  0  0  0  0  0  0  0  0  0  0  0
   -0.0000    0.0000    0.0000 C   0  0  0  0  0  0  0  0  0  0  0  0
   -1.4888    0.1828    0.0000 F   0  0  0  0  0  0  0  0  0  0  0  0
    0.0000    1.5000    0.0000 F   0  0  0  0  0  0  0  0  0  0  0  0
    1.5000    0.0000    0.0000 C   0  0  0  0  0  0  0  0  0  0  0  0
    3.0000   -0.0000    0.0000 F   0  0  0  0  0  0  0  0  0  0  0  0
    1.6080   -0.8791    0.0000 F   0  0  0  0  0  0  0  0  0  0  0  0
    1.5000    1.5000    0.0000 F   0  0  0  0  0  0  0  0  0  0  0  0
   -0.0000   -3.0000    0.0000 C   0  0  0  0  0  0  0  0  0  0  0  0
    1.5000   -3.0000    0.0000 F   0  0  0  0  0  0  0  0  0  0  0  0
   -0.0000   -4.5000    0.0000 F   0  0  0  0  0  0  0  0  0  0  0  0
   -1.5000   -3.0000    0.0000 C   0  0  0  0  0  0  0  0  0  0  0  0
   -2.9888   -2.8172    0.0000 F   0  0  0  0  0  0  0  0  0  0  0  0
   -1.6828   -4.4888    0.0000 F   0  0  0  0  0  0  0  0  0  0  0  0
   -1.8630   -1.5446    0.0000 F   0  0  0  0  0  0  0  0  0  0  0  0
   -1.5000   -1.5000    0.0000 C   0  0  0  0  0  0  0  0  0  0  0  0
   -1.6828   -0.0112    0.0000 F   0  0  0  0  0  0  0  0  0  0  0  0
   -3.0000   -1.5000    0.0000 F   0  0  0  0  0  0  0  0  0  0  0  0
   -1.5000   -3.0000    0.0000 C   0  0  0  0  0  0  0  0  0  0  0  0
   -1.3172   -4.4888    0.0000 F   0  0  0  0  0  0  0  0  0  0  0  0
   -2.9888   -3.1828    0.0000 F   0  0  0  0  0  0  0  0  0  0  0  0
   -0.0446   -3.3630    0.0000 F   0  0  0  0  0  0  0  0  0  0  0  0
  1  2  2  0
  2  3  1  0
  3  4  1  0
  3  5  1  0
  3  6  1  0
  6  7  1  0
  6  8  1  0
  6  9  1  0
  2 10  1  0
 10 11  1  0
 10 12  1  0
 10 13  1  0
 13 14  1  0
 13 15  1  0
 13 16  1  0
  2 17  1  0
 17 18  1  0
 17 19  1  0
 17 20  1  0
 20 21  1  0
 20 22  1  0
 20 23  1  0
M  END
$$$$

     RDKit          2D

 20 21  0  0  0  0  0  0  0  0999 V2000
    3.0000    0.0000    0.0000 F   0  0  0  0  0  0  0  0  0  0  0  0
    1.5000    0.0000    0.0000 C   0  0  0  0  0  0  0  0  0  0  0  0
    0.7500   -1.2990    0.0000 C   0  0  0  0  0  0  0  0  0  0  0  0
   -0.7500   -1.2990    0.0000 C   0  0  0  0  0  0  0  0  0  0  0  0
   -1.5000    0.0000    0.0000 C   0  0  0  0  0  0  0  0  0  0  0  0
   -3.0000    0.0000    0.0000 C   0  0  0  0  0  0  0  0  0  0  0  0
   -3.0000    1.5000    0.0000 F   0  0  0  0  0  0  0  0  0  0  0  0
   -3.0000   -1.5000    0.0000 F   0  0  0  0  0  0  0  0  0  0  0  0
   -4.5000    0.0000    0.0000 C   0  0  0  0  0  0  0  0  0  0  0  0
   -4.5000    1.5000    0.0000 F   0  0  0  0  0  0  0  0  0  0  0  0
   -4.5000   -1.5000    0.0000 F   0  0  0  0  0  0  0  0  0  0  0  0
   -6.0000    0.0000    0.0000 C   0  0  0  0  0  0  0  0  0  0  0  0
   -6.7500    1.2990    0.0000 C   0  0  0  0  0  0  0  0  0  0  0  0
   -8.2500    1.2990    0.0000 C   0  0  0  0  0  0  0  0  0  0  0  0
   -9.0000    0.0000    0.0000 C   0  0  0  0  0  0  0  0  0  0  0  0
  -10.5000    0.0000    0.0000 F   0  0  0  0  0  0  0  0  0  0  0  0
   -8.2500   -1.2990    0.0000 C   0  0  0  0  0  0  0  0  0  0  0  0
   -6.7500   -1.2990    0.0000 C   0  0  0  0  0  0  0  0  0  0  0  0
   -0.7500    1.2990    0.0000 C   0  0  0  0  0  0  0  0  0  0  0  0
    0.7500    1.2990    0.0000 C   0  0  0  0  0  0  0  0  0  0  0  0
  1  2  1  0
  2  3  2  0
  3  4  1  0
  4  5  2  0
  5  6  1  0
  6  7  1  0
  6  8  1  0
  6  9  1  0
  9 10  1  0
  9 11  1  0
  9 12  1  0
 12 13  2  0
 13 14  1  0
 14 15  2  0
 15 16  1  0
 15 17  1  0
 17 18  2  0
  5 19  1  0
 19 20  2  0
 20  2  1  0
 18 12  1  0
M  END
$$$$

     RDKit          2D

 21 22  0  0  0  0  0  0  0  0999 V2000
   -1.7455   -2.9392    0.0000 O   0  0  0  0  0  0  0  0  0  0  0  0
   -0.7418   -4.0539    0.0000 C   0  0  0  0  0  0  0  0  0  0  0  0
   -1.0537   -5.5211    0.0000 O   0  0  0  0  0  0  0  0  0  0  0  0
    0.2454   -6.2711    0.0000 C   0  0  0  0  0  0  0  0  0  0  0  0
    1.3601   -7.2748    0.0000 C   0  0  0  0  0  0  0  0  0  0  0  0
    2.4748   -8.2785    0.0000 F   0  0  0  0  0  0  0  0  0  0  0  0
    2.3638   -6.1601    0.0000 F   0  0  0  0  0  0  0  0  0  0  0  0
    0.9029   -7.9278    0.0000 F   0  0  0  0  0  0  0  0  0  0  0  0
   -0.6363   -7.4847    0.0000 C   0  0  0  0  0  0  0  0  0  0  0  0
   -1.5180   -8.6982    0.0000 F   0  0  0  0  0  0  0  0  0  0  0  0
   -0.0533   -8.0283    0.0000 F   0  0  0  0  0  0  0  0  0  0  0  0
   -1.8498   -6.6030    0.0000 F   0  0  0  0  0  0  0  0  0  0  0  0
    1.3601   -5.2674    0.0000 O   0  0  0  0  0  0  0  0  0  0  0  0
    0.7500   -3.8971    0.0000 C   0  0  0  0  0  0  0  0  0  0  0  0
    1.5000   -2.5981    0.0000 C   0  0  0  0  0  0  0  0  0  0  0  0
    0.7500   -1.2990    0.0000 C   0  0  0  0  0  0  0  0  0  0  0  0
    1.5000    0.0000    0.0000 C   0  0  0  0  0  0  0  0  0  0  0  0
    0.7500    1.2990    0.0000 C   0  0  0  0  0  0  0  0  0  0  0  0
   -0.7500    1.2990    0.0000 C   0  0  0  0  0  0  0  0  0  0  0  0
   -1.5000    0.0000    0.0000 C   0  0  0  0  0  0  0  0  0  0  0  0
   -0.7500   -1.2990    0.0000 C   0  0  0  0  0  0  0  0  0  0  0  0
  1  2  2  0
  2  3  1  0
  3  4  1  0
  4  5  1  0
  5  6  1  0
  5  7  1  0
  5  8  1  0
  4  9  1  0
  9 10  1  0
  9 11  1  0
  9 12  1  0
  4 13  1  0
 13 14  1  0
 14 15  1  6
 15 16  1  0
 16 17  2  0
 17 18  1  0
 18 19  2  0
 19 20  1  0
 20 21  2  0
 14  2  1  0
 21 16  1  0
M  END
$$$$

     RDKit          2D

 30 29  0  0  0  0  0  0  0  0999 V2000
    0.0000   -3.0000    0.0000 O   0  0  0  0  0  0  0  0  0  0  0  0
    0.0000   -1.5000    0.0000 S   0  0  0  0  0  0  0  0  0  0  0  0
   -1.5000   -1.5000    0.0000 O   0  0  0  0  0  0  0  0  0  0  0  0
    0.7912   -1.5972    0.0000 F   0  0  0  0  0  0  0  0  0  0  0  0
    0.0000    0.0000    0.0000 C   0  0  0  0  0  0  0  0  0  0  0  0
   -1.5000    0.0000    0.0000 F   0  0  0  0  0  0  0  0  0  0  0  0
    0.0000    1.5000    0.0000 F   0  0  0  0  0  0  0  0  0  0  0  0
    1.5000    0.0000    0.0000 C   0  0  0  0  0  0  0  0  0  0  0  0
    1.6080   -0.8791    0.0000 F   0  0  0  0  0  0  0  0  0  0  0  0
    1.5000    1.5000    0.0000 F   0  0  0  0  0  0  0  0  0  0  0  0
    3.0000    0.0000    0.0000 O   0  0  0  0  0  0  0  0  0  0  0  0
    3.7500    1.2990    0.0000 C   0  0  0  0  0  0  0  0  0  0  0  0
    2.4510    2.0490    0.0000 F   0  0  0  0  0  0  0  0  0  0  0  0
    5.0490    0.5490    0.0000 F   0  0  0  0  0  0  0  0  0  0  0  0
    4.5000    2.5981    0.0000 C   0  0  0  0  0  0  0  0  0  0  0  0
    5.7990    1.8481    0.0000 F   0  0  0  0  0  0  0  0  0  0  0  0
    3.2010    3.3481    0.0000 F   0  0  0  0  0  0  0  0  0  0  0  0
    5.2500    3.8971    0.0000 C   0  0  0  0  0  0  0  0  0  0  0  0
    3.9510    4.6471    0.0000 F   0  0  0  0  0  0  0  0  0  0  0  0
    6.5490    3.1471    0.0000 F   0  0  0  0  0  0  0  0  0  0  0  0
    6.0000    5.1962    0.0000 C   0  0  0  0  0  0  0  0  0  0  0  0
    4.7010    5.9462    0.0000 F   0  0  0  0  0  0  0  0  0  0  0  0
    7.2990    4.4462    0.0000 F   0  0  0  0  0  0  0  0  0  0  0  0
    6.7500    6.4952    0.0000 C   0  0  0  0  0  0  0  0  0  0  0  0
    8.0490    5.7452    0.0000 F   0  0  0  0  0  0  0  0  0  0  0  0
    5.4510    7.2452    0.0000 F   0  0  0  0  0  0  0  0  0  0  0  0
    7.5000    7.7942    0.0000 C   0  0  0  0  0  0  0  0  0  0  0  0
    8.2500    9.0933    0.0000 F   0  0  0  0  0  0  0  0  0  0  0  0
    6.2010    8.5442    0.0000 F   0  0  0  0  0  0  0  0  0  0  0  0
    8.7990    7.0442    0.0000 I   0  0  0  0  0  0  0  0  0  0  0  0
  1  2  2  0
  2  3  2  0
  2  4  1  0
  2  5  1  0
  5  6  1  0
  5  7  1  0
  5  8  1  0
  8  9  1  0
  8 10  1  0
  8 11  1  0
 11 12  1  0
 12 13  1  0
 12 14  1  0
 12 15  1  0
 15 16  1  0
 15 17  1  0
 15 18  1  0
 18 19  1  0
 18 20  1  0
 18 21  1  0
 21 22  1  0
 21 23  1  0
 21 24  1  0
 24 25  1  0
 24 26  1  0
 24 27  1  0
 27 28  1  0
 27 29  1  0
 27 30  1  0
M  END
$$$$

     RDKit          2D

 16 16  0  0  0  0  0  0  0  0999 V2000
    2.6491    0.9642    0.0000 O   0  0  0  0  0  0  0  0  0  0  0  0
    1.5000    0.0000    0.0000 S   0  0  0  0  0  0  0  0  0  0  0  0
    2.6491   -0.9642    0.0000 O   0  0  0  0  0  0  0  0  0  0  0  0
    0.7500   -1.2990    0.0000 N   0  0  0  0  0  0  0  0  0  0  0  0
   -0.7500   -1.2990    0.0000 S   0  0  0  0  0  0  0  0  0  0  0  0
   -0.4895   -2.7762    0.0000 O   0  0  0  0  0  0  0  0  0  0  0  0
   -2.1595   -1.8121    0.0000 O   0  0  0  0  0  0  0  0  0  0  0  0
   -1.5000    0.0000    0.0000 C   0  0  0  0  0  0  0  0  0  0  0  0
   -2.6491   -0.9642    0.0000 F   0  0  0  0  0  0  0  0  0  0  0  0
   -2.6491    0.9642    0.0000 F   0  0  0  0  0  0  0  0  0  0  0  0
   -0.7500    1.2990    0.0000 C   0  0  0  0  0  0  0  0  0  0  0  0
   -2.1595    1.8121    0.0000 F   0  0  0  0  0  0  0  0  0  0  0  0
   -0.4895    2.7762    0.0000 F   0  0  0  0  0  0  0  0  0  0  0  0
    0.7500    1.2990    0.0000 C   0  0  0  0  0  0  0  0  0  0  0  0
    0.4895    2.7762    0.0000 F   0  0  0  0  0  0  0  0  0  0  0  0
    2.1595    1.8121    0.0000 F   0  0  0  0  0  0  0  0  0  0  0  0
  1  2  2  0
  2  3  2  0
  2  4  1  0
  4  5  1  0
  5  6  2  0
  5  7  2  0
  5  8  1  0
  8  9  1  0
  8 10  1  0
  8 11  1  0
 11 12  1  0
 11 13  1  0
 11 14  1  0
 14 15  1  0
 14 16  1  0
 14  2  1  0
M  END
$$$$

     RDKit          2D

 12 11  0  0  0  0  0  0  0  0999 V2000
    3.8971   -0.7500    0.0000 F   0  0  0  0  0  0  0  0  0  0  0  0
    2.5981   -0.0000    0.0000 C   0  0  0  0  0  0  0  0  0  0  0  0
    3.3481    1.2990    0.0000 F   0  0  0  0  0  0  0  0  0  0  0  0
    1.8481   -1.2990    0.0000 F   0  0  0  0  0  0  0  0  0  0  0  0
    1.2990    0.7500    0.0000 C   0  0  0  0  0  0  0  0  0  0  0  0
    0.0000    0.0000    0.0000 C   0  0  0  0  0  0  0  0  0  0  0  0
   -1.2990    0.7500    0.0000 C   0  0  0  0  0  0  0  0  0  0  0  0
   -2.5981    0.0000    0.0000 Cl  0  0  0  0  0  0  0  0  0  0  0  0
    1.2990    2.2500    0.0000 C   0  0  0  0  0  0  0  0  0  0  0  0
    1.2990    3.7500    0.0000 F   0  0  0  0  0  0  0  0  0  0  0  0
    2.7990    2.2500    0.0000 F   0  0  0  0  0  0  0  0  0  0  0  0
   -0.2010    2.2500    0.0000 F   0  0  0  0  0  0  0  0  0  0  0  0
  1  2  1  0
  2  3  1  0
  2  4  1  0
  2  5  1  0
  5  6  2  0
  6  7  1  0
  7  8  1  0
  5  9  1  0
  9 10  1  0
  9 11  1  0
  9 12  1  0
M  END
$$$$

     RDKit          2D

 10  9  0  0  0  0  0  0  0  0999 V2000
   -1.2990    0.7500    0.0000 O   0  0  0  0  0  0  0  0  0  0  0  0
    0.0000    0.0000    0.0000 C   0  0  0  0  0  0  0  0  0  0  0  0
   -0.0000   -1.5000    0.0000 F   0  0  0  0  0  0  0  0  0  0  0  0
    1.2990    0.7500    0.0000 C   0  0  0  0  0  0  0  0  0  0  0  0
    2.0490   -0.5490    0.0000 F   0  0  0  0  0  0  0  0  0  0  0  0
    0.5490    2.0490    0.0000 I   0  0  0  0  0  0  0  0  0  0  0  0
    2.5981    1.5000    0.0000 C   0  0  0  0  0  0  0  0  0  0  0  0
    3.8971    2.2500    0.0000 F   0  0  0  0  0  0  0  0  0  0  0  0
    1.8481    2.7990    0.0000 F   0  0  0  0  0  0  0  0  0  0  0  0
    3.3481    0.2010    0.0000 F   0  0  0  0  0  0  0  0  0  0  0  0
  1  2  2  0
  2  3  1  0
  2  4  1  0
  4  5  1  0
  4  6  1  0
  4  7  1  0
  7  8  1  0
  7  9  1  0
  7 10  1  0
M  END
$$$$

     RDKit          2D

 18 17  0  0  0  0  0  0  0  0999 V2000
   -1.5000    0.0000    0.0000 F   0  0  0  0  0  0  0  0  0  0  0  0
    0.0000    0.0000    0.0000 C   0  0  0  0  0  0  0  0  0  0  0  0
    0.0000    1.5000    0.0000 F   0  0  0  0  0  0  0  0  0  0  0  0
   -0.0000   -1.5000    0.0000 F   0  0  0  0  0  0  0  0  0  0  0  0
    1.5000    0.0000    0.0000 O   0  0  0  0  0  0  0  0  0  0  0  0
    2.2500   -1.2990    0.0000 C   0  0  0  0  0  0  0  0  0  0  0  0
    0.9510   -2.0490    0.0000 F   0  0  0  0  0  0  0  0  0  0  0  0
    3.5490   -0.5490    0.0000 F   0  0  0  0  0  0  0  0  0  0  0  0
    3.0000   -2.5981    0.0000 C   0  0  0  0  0  0  0  0  0  0  0  0
    4.2990   -1.8481    0.0000 F   0  0  0  0  0  0  0  0  0  0  0  0
    1.7010   -3.3481    0.0000 F   0  0  0  0  0  0  0  0  0  0  0  0
    3.7500   -3.8971    0.0000 C   0  0  0  0  0  0  0  0  0  0  0  0
    5.0490   -3.1471    0.0000 F   0  0  0  0  0  0  0  0  0  0  0  0
    2.4510   -4.6471    0.0000 F   0  0  0  0  0  0  0  0  0  0  0  0
    4.5000   -5.1962    0.0000 C   0  0  0  0  0  0  0  0  0  0  0  0
    5.2500   -6.4952    0.0000 F   0  0  0  0  0  0  0  0  0  0  0  0
    3.2010   -5.9462    0.0000 F   0  0  0  0  0  0  0  0  0  0  0  0
    5.7990   -4.4462    0.0000 F   0  0  0  0  0  0  0  0  0  0  0  0
  1  2  1  0
  2  3  1  0
  2  4  1  0
  2  5  1  0
  5  6  1  0
  6  7  1  0
  6  8  1  0
  6  9  1  0
  9 10  1  0
  9 11  1  0
  9 12  1  0
 12 13  1  0
 12 14  1  0
 12 15  1  0
 15 16  1  0
 15 17  1  0
 15 18  1  0
M  END
$$$$

     RDKit          2D

 13 12  0  0  0  0  0  0  0  0999 V2000
    0.0000    0.0000    0.0000 C   0  0  0  0  0  0  0  0  0  0  0  0
    1.2990    0.7500    0.0000 O   0  0  0  0  0  0  0  0  0  0  0  0
    2.5981   -0.0000    0.0000 N   0  0  0  0  0  0  0  0  0  0  0  0
    3.8971    0.7500    0.0000 C   0  0  0  0  0  0  0  0  0  0  0  0
    2.5981   -1.5000    0.0000 C   0  0  0  0  0  0  0  0  0  0  0  0
    1.2990   -2.2500    0.0000 O   0  0  0  0  0  0  0  0  0  0  0  0
    3.8971   -2.2500    0.0000 C   0  0  0  0  0  0  0  0  0  0  0  0
    3.1471   -3.5490    0.0000 F   0  0  0  0  0  0  0  0  0  0  0  0
    4.6471   -0.9510    0.0000 Br  0  0  0  0  0  0  0  0  0  0  0  0
    5.1962   -3.0000    0.0000 C   0  0  0  0  0  0  0  0  0  0  0  0
    6.4952   -3.7500    0.0000 F   0  0  0  0  0  0  0  0  0  0  0  0
    5.9462   -1.7010    0.0000 F   0  0  0  0  0  0  0  0  0  0  0  0
    4.4462   -4.2990    0.0000 F   0  0  0  0  0  0  0  0  0  0  0  0
  1  2  1  0
  2  3  1  0
  3  4  1  0
  3  5  1  0
  5  6  2  0
  5  7  1  0
  7  8  1  0
  7  9  1  0
  7 10  1  0
 10 11  1  0
 10 12  1  0
 10 13  1  0
M  END
$$$$

     RDKit          2D

 17 16  0  0  0  0  0  0  0  0999 V2000
   -1.5000    0.0000    0.0000 F   0  0  0  0  0  0  0  0  0  0  0  0
    0.0000    0.0000    0.0000 C   0  0  0  0  0  0  0  0  0  0  0  0
    0.0000    1.5000    0.0000 F   0  0  0  0  0  0  0  0  0  0  0  0
   -0.0000   -1.5000    0.0000 F   0  0  0  0  0  0  0  0  0  0  0  0
    1.5000    0.0000    0.0000 C   0  0  0  0  0  0  0  0  0  0  0  0
    1.5000    1.5000    0.0000 F   0  0  0  0  0  0  0  0  0  0  0  0
    1.5000   -1.5000    0.0000 F   0  0  0  0  0  0  0  0  0  0  0  0
    3.0000    0.0000    0.0000 C   0  0  0  0  0  0  0  0  0  0  0  0
    3.0000    1.5000    0.0000 F   0  0  0  0  0  0  0  0  0  0  0  0
    3.0000   -1.5000    0.0000 F   0  0  0  0  0  0  0  0  0  0  0  0
    4.5000    0.0000    0.0000 C   0  0  0  0  0  0  0  0  0  0  0  0
    4.5000   -1.5000    0.0000 F   0  0  0  0  0  0  0  0  0  0  0  0
    4.5000    1.5000    0.0000 F   0  0  0  0  0  0  0  0  0  0  0  0
    6.0000    0.0000    0.0000 C   0  0  0  0  0  0  0  0  0  0  0  0
    7.5000    0.0000    0.0000 F   0  0  0  0  0  0  0  0  0  0  0  0
    6.0000    1.5000    0.0000 F   0  0  0  0  0  0  0  0  0  0  0  0
    6.0000   -1.5000    0.0000 F   0  0  0  0  0  0  0  0  0  0  0  0
  1  2  1  0
  2  3  1  0
  2  4  1  0
  2  5  1  0
  5  6  1  0
  5  7  1  0
  5  8  1  0
  8  9  1  0
  8 10  1  0
  8 11  1  0
 11 12  1  0
 11 13  1  0
 11 14  1  0
 14 15  1  0
 14 16  1  0
 14 17  1  0
M  END
$$$$

     RDKit          2D

 20 20  0  0  0  0  0  0  0  0999 V2000
    6.0000   -2.5981    0.0000 C   0  0  0  0  0  0  0  0  0  0  0  0
    5.2500   -1.2990    0.0000 C   0  0  0  0  0  0  0  0  0  0  0  0
    3.7500   -1.2990    0.0000 C   0  0  0  0  0  0  0  0  0  0  0  0
    3.0000    0.0000    0.0000 N   0  0  0  0  0  0  0  0  0  0  0  0
    1.5000    0.0000    0.0000 C   0  0  0  0  0  0  0  0  0  0  0  0
    0.7500   -1.2990    0.0000 C   0  0  0  0  0  0  0  0  0  0  0  0
   -0.7500   -1.2990    0.0000 C   0  0  0  0  0  0  0  0  0  0  0  0
   -1.5000    0.0000    0.0000 C   0  0  0  0  0  0  0  0  0  0  0  0
   -3.0000    0.0000    0.0000 C   0  0  0  0  0  0  0  0  0  0  0  0
   -3.0000   -1.5000    0.0000 O   0  0  0  0  0  0  0  0  0  0  0  0
   -4.5000    0.0000    0.0000 C   0  0  0  0  0  0  0  0  0  0  0  0
   -6.0000   -0.0000    0.0000 F   0  0  0  0  0  0  0  0  0  0  0  0
   -4.5000   -1.5000    0.0000 F   0  0  0  0  0  0  0  0  0  0  0  0
   -4.6080    0.8791    0.0000 F   0  0  0  0  0  0  0  0  0  0  0  0
   -3.0000    1.5000    0.0000 C   0  0  0  0  0  0  0  0  0  0  0  0
   -3.0000    3.0000    0.0000 F   0  0  0  0  0  0  0  0  0  0  0  0
   -3.8791    1.6080    0.0000 F   0  0  0  0  0  0  0  0  0  0  0  0
   -1.5446    1.8630    0.0000 F   0  0  0  0  0  0  0  0  0  0  0  0
   -0.7500    1.2990    0.0000 C   0  0  0  0  0  0  0  0  0  0  0  0
    0.7500    1.2990    0.0000 C   0  0  0  0  0  0  0  0  0  0  0  0
  1  2  1  0
  2  3  1  0
  3  4  1  0
  4  5  1  0
  5  6  2  0
  6  7  1  0
  7  8  2  0
  8  9  1  0
  9 10  1  0
  9 11  1  0
 11 12  1  0
 11 13  1  0
 11 14  1  0
  9 15  1  0
 15 16  1  0
 15 17  1  0
 15 18  1  0
  8 19  1  0
 19 20  2  0
 20  5  1  0
M  END
$$$$

     RDKit          2D

 10 10  0  0  0  0  0  0  0  0999 V2000
    2.7760    0.0000    0.0000 O   0  0  0  0  0  0  0  0  0  0  0  0
    1.2760    0.0000    0.0000 C   0  0  0  0  0  0  0  0  0  0  0  0
    0.3943    1.2135    0.0000 O   0  0  0  0  0  0  0  0  0  0  0  0
   -1.0323    0.7500    0.0000 C   0  0  0  0  0  0  0  0  0  0  0  0
   -1.0323   -0.7500    0.0000 C   0  0  0  0  0  0  0  0  0  0  0  0
   -1.3442   -2.2172    0.0000 F   0  0  0  0  0  0  0  0  0  0  0  0
   -2.5241   -0.5932    0.0000 F   0  0  0  0  0  0  0  0  0  0  0  0
    0.3943   -1.2135    0.0000 C   0  0  0  0  0  0  0  0  0  0  0  0
    1.6933   -1.9635    0.0000 F   0  0  0  0  0  0  0  0  0  0  0  0
   -0.2158   -2.5838    0.0000 F   0  0  0  0  0  0  0  0  0  0  0  0
  1  2  1  0
  2  3  1  0
  3  4  1  0
  4  5  1  0
  5  6  1  0
  5  7  1  0
  5  8  1  0
  8  9  1  0
  8 10  1  0
  8  2  1  0
M  END
$$$$

     RDKit          2D

 25 24  0  0  0  0  0  0  0  0999 V2000
    0.0000    0.0000    0.0000 C   0  0  0  0  0  0  0  0  0  0  0  0
    1.2990    0.7500    0.0000 Si  0  0  0  0  0  4  0  0  0  0  0  0
    2.5981    1.5000    0.0000 C   0  0  0  0  0  0  0  0  0  0  0  0
    0.5490    2.0490    0.0000 O   0  0  0  0  0  0  0  0  0  0  0  0
    2.0490   -0.5490    0.0000 C   0  0  0  0  0  0  0  0  0  0  0  0
    3.5490   -0.5490    0.0000 C   0  0  0  0  0  0  0  0  0  0  0  0
    4.2990   -1.8481    0.0000 C   0  0  0  0  0  0  0  0  0  0  0  0
    5.5981   -1.0981    0.0000 F   0  0  0  0  0  0  0  0  0  0  0  0
    3.0000   -2.5981    0.0000 F   0  0  0  0  0  0  0  0  0  0  0  0
    5.0490   -3.1471    0.0000 C   0  0  0  0  0  0  0  0  0  0  0  0
    3.7500   -3.8971    0.0000 F   0  0  0  0  0  0  0  0  0  0  0  0
    6.3481   -2.3971    0.0000 F   0  0  0  0  0  0  0  0  0  0  0  0
    5.7990   -4.4462    0.0000 C   0  0  0  0  0  0  0  0  0  0  0  0
    7.0981   -3.6962    0.0000 F   0  0  0  0  0  0  0  0  0  0  0  0
    4.5000   -5.1962    0.0000 F   0  0  0  0  0  0  0  0  0  0  0  0
    6.5490   -5.7452    0.0000 C   0  0  0  0  0  0  0  0  0  0  0  0
    5.2500   -6.4952    0.0000 F   0  0  0  0  0  0  0  0  0  0  0  0
    7.8481   -4.9952    0.0000 F   0  0  0  0  0  0  0  0  0  0  0  0
    7.2990   -7.0442    0.0000 C   0  0  0  0  0  0  0  0  0  0  0  0
    8.5981   -6.2942    0.0000 F   0  0  0  0  0  0  0  0  0  0  0  0
    6.0000   -7.7942    0.0000 F   0  0  0  0  0  0  0  0  0  0  0  0
    8.0490   -8.3433    0.0000 C   0  0  0  0  0  0  0  0  0  0  0  0
    8.7990   -9.6423    0.0000 F   0  0  0  0  0  0  0  0  0  0  0  0
    6.7500   -9.0933    0.0000 F   0  0  0  0  0  0  0  0  0  0  0  0
    9.3481   -7.5933    0.0000 F   0  0  0  0  0  0  0  0  0  0  0  0
  1  2  1  0
  2  3  1  0
  2  4  1  0
  2  5  1  0
  5  6  1  0
  6  7  1  0
  7  8  1  0
  7  9  1  0
  7 10  1  0
 10 11  1  0
 10 12  1  0
 10 13  1  0
 13 14  1  0
 13 15  1  0
 13 16  1  0
 16 17  1  0
 16 18  1  0
 16 19  1  0
 19 20  1  0
 19 21  1  0
 19 22  1  0
 22 23  1  0
 22 24  1  0
 22 25  1  0
M  END
$$$$

     RDKit          2D

 19 19  0  0  0  0  0  0  0  0999 V2000
    3.7500    1.2990    0.0000 O   0  0  0  0  0  0  0  0  0  0  0  0
    3.0000    0.0000    0.0000 C   0  0  0  0  0  0  0  0  0  0  0  0
    3.7500   -1.2990    0.0000 C   0  0  0  0  0  0  0  0  0  0  0  0
    5.2500   -1.2990    0.0000 C   0  0  0  0  0  0  0  0  0  0  0  0
    5.2500    0.2010    0.0000 O   0  0  0  0  0  0  0  0  0  0  0  0
    6.7500   -1.2990    0.0000 C   0  0  0  0  0  0  0  0  0  0  0  0
    8.2500   -1.2990    0.0000 F   0  0  0  0  0  0  0  0  0  0  0  0
    6.7500    0.2010    0.0000 F   0  0  0  0  0  0  0  0  0  0  0  0
    6.8580   -2.1782    0.0000 F   0  0  0  0  0  0  0  0  0  0  0  0
    5.2500   -2.7990    0.0000 C   0  0  0  0  0  0  0  0  0  0  0  0
    5.2500   -4.2990    0.0000 F   0  0  0  0  0  0  0  0  0  0  0  0
    6.1291   -2.9070    0.0000 F   0  0  0  0  0  0  0  0  0  0  0  0
    3.7500   -2.7990    0.0000 F   0  0  0  0  0  0  0  0  0  0  0  0
    1.5000    0.0000    0.0000 C   0  0  0  0  0  0  0  0  0  0  0  0
    0.7500   -1.2990    0.0000 C   0  0  0  0  0  0  0  0  0  0  0  0
   -0.7500   -1.2990    0.0000 C   0  0  0  0  0  0  0  0  0  0  0  0
   -1.5000    0.0000    0.0000 C   0  0  0  0  0  0  0  0  0  0  0  0
   -0.7500    1.2990    0.0000 C   0  0  0  0  0  0  0  0  0  0  0  0
    0.7500    1.2990    0.0000 C   0  0  0  0  0  0  0  0  0  0  0  0
  1  2  2  0
  2  3  1  0
  3  4  1  0
  4  5  1  0
  4  6  1  0
  6  7  1  0
  6  8  1  0
  6  9  1  0
  4 10  1  0
 10 11  1  0
 10 12  1  0
 10 13  1  0
  2 14  1  0
 14 15  2  0
 15 16  1  0
 16 17  2  0
 17 18  1  0
 18 19  2  0
 19 14  1  0
M  END
$$$$

     RDKit          2D

 27 26  0  0  0  0  0  0  0  0999 V2000
    0.0000    0.0000    0.0000 C   0  0  0  0  0  0  0  0  0  0  0  0
    1.2990    0.7500    0.0000 C   0  0  0  0  0  0  0  0  0  0  0  0
    2.5981   -0.0000    0.0000 C   0  0  0  0  0  0  0  0  0  0  0  0
    1.2990    2.2500    0.0000 C   0  0  0  0  0  0  0  0  0  0  0  0
    0.0000    3.0000    0.0000 O   0  0  0  0  0  0  0  0  0  0  0  0
    2.5981    3.0000    0.0000 O   0  0  0  0  0  0  0  0  0  0  0  0
    2.5981    4.5000    0.0000 C   0  0  0  0  0  0  0  0  0  0  0  0
    3.8971    5.2500    0.0000 C   0  0  0  0  0  0  0  0  0  0  0  0
    3.8971    6.7500    0.0000 C   0  0  0  0  0  0  0  0  0  0  0  0
    5.3971    6.7500    0.0000 F   0  0  0  0  0  0  0  0  0  0  0  0
    2.3971    6.7500    0.0000 F   0  0  0  0  0  0  0  0  0  0  0  0
    3.8971    8.2500    0.0000 C   0  0  0  0  0  0  0  0  0  0  0  0
    2.3971    8.2500    0.0000 F   0  0  0  0  0  0  0  0  0  0  0  0
    5.3971    8.2500    0.0000 F   0  0  0  0  0  0  0  0  0  0  0  0
    3.8971    9.7500    0.0000 C   0  0  0  0  0  0  0  0  0  0  0  0
    5.3971    9.7500    0.0000 F   0  0  0  0  0  0  0  0  0  0  0  0
    2.3971    9.7500    0.0000 F   0  0  0  0  0  0  0  0  0  0  0  0
    3.8971   11.2500    0.0000 C   0  0  0  0  0  0  0  0  0  0  0  0
    2.3971   11.2500    0.0000 F   0  0  0  0  0  0  0  0  0  0  0  0
    5.3971   11.2500    0.0000 F   0  0  0  0  0  0  0  0  0  0  0  0
    3.8971   12.7500    0.0000 C   0  0  0  0  0  0  0  0  0  0  0  0
    5.3971   12.7500    0.0000 F   0  0  0  0  0  0  0  0  0  0  0  0
    2.3971   12.7500    0.0000 F   0  0  0  0  0  0  0  0  0  0  0  0
    3.8971   14.2500    0.0000 C   0  0  0  0  0  0  0  0  0  0  0  0
    3.8971   15.7500    0.0000 F   0  0  0  0  0  0  0  0  0  0  0  0
    2.3971   14.2500    0.0000 F   0  0  0  0  0  0  0  0  0  0  0  0
    5.3971   14.2500    0.0000 F   0  0  0  0  0  0  0  0  0  0  0  0
  1  2  2  0
  2  3  1  0
  2  4  1  0
  4  5  2  0
  4  6  1  0
  6  7  1  0
  7  8  1  0
  8  9  1  0
  9 10  1  0
  9 11  1  0
  9 12  1  0
 12 13  1  0
 12 14  1  0
 12 15  1  0
 15 16  1  0
 15 17  1  0
 15 18  1  0
 18 19  1  0
 18 20  1  0
 18 21  1  0
 21 22  1  0
 21 23  1  0
 21 24  1  0
 24 25  1  0
 24 26  1  0
 24 27  1  0
M  END
$$$$

     RDKit          2D

 12 11  0  0  0  0  0  0  0  0999 V2000
   -0.0000   -1.5000    0.0000 N   0  0  0  0  0  0  0  0  0  0  0  0
    0.0000    0.0000    0.0000 C   0  0  0  0  0  0  0  0  0  0  0  0
    0.0000    1.5000    0.0000 C   0  0  0  0  0  0  0  0  0  0  0  0
    1.2990    2.2500    0.0000 C   0  0  0  0  0  0  0  0  0  0  0  0
    1.2990    3.7500    0.0000 C   0  0  0  0  0  0  0  0  0  0  0  0
    1.2990    5.2500    0.0000 F   0  0  0  0  0  0  0  0  0  0  0  0
    2.7990    3.7500    0.0000 F   0  0  0  0  0  0  0  0  0  0  0  0
   -0.2010    3.7500    0.0000 F   0  0  0  0  0  0  0  0  0  0  0  0
    2.5981    1.5000    0.0000 C   0  0  0  0  0  0  0  0  0  0  0  0
    3.8971    0.7500    0.0000 F   0  0  0  0  0  0  0  0  0  0  0  0
    3.3481    2.7990    0.0000 F   0  0  0  0  0  0  0  0  0  0  0  0
    1.8481    0.2010    0.0000 F   0  0  0  0  0  0  0  0  0  0  0  0
  1  2  3  0
  2  3  1  0
  3  4  2  0
  4  5  1  0
  5  6  1  0
  5  7  1  0
  5  8  1  0
  4  9  1  0
  9 10  1  0
  9 11  1  0
  9 12  1  0
M  END
$$$$

     RDKit          2D

 10  9  0  0  0  0  0  0  0  0999 V2000
   -0.0000   -1.5000    0.0000 O   0  0  0  0  0  0  0  0  0  0  0  0
    0.0000    0.0000    0.0000 C   0  0  0  0  0  0  0  0  0  0  0  0
   -1.2990    0.7500    0.0000 O   0  0  0  0  0  0  0  0  0  0  0  0
    1.2990    0.7500    0.0000 C   0  0  0  0  0  0  0  0  0  0  0  0
    2.0490   -0.5490    0.0000 F   0  0  0  0  0  0  0  0  0  0  0  0
    0.5490    2.0490    0.0000 Cl  0  0  0  0  0  0  0  0  0  0  0  0
    2.5981    1.5000    0.0000 C   0  0  0  0  0  0  0  0  0  0  0  0
    3.8971    2.2500    0.0000 F   0  0  0  0  0  0  0  0  0  0  0  0
    1.8481    2.7990    0.0000 F   0  0  0  0  0  0  0  0  0  0  0  0
    3.3481    0.2010    0.0000 F   0  0  0  0  0  0  0  0  0  0  0  0
  1  2  2  0
  2  3  1  0
  2  4  1  0
  4  5  1  0
  4  6  1  0
  4  7  1  0
  7  8  1  0
  7  9  1  0
  7 10  1  0
M  END
$$$$

     RDKit          2D

 37 37  0  0  0  0  0  0  0  0999 V2000
    3.7500   -1.2990    0.0000 O   0  0  0  0  0  0  0  0  0  0  0  0
    3.0000    0.0000    0.0000 C   0  0  0  0  0  0  0  0  0  0  0  0
    1.5000    0.0000    0.0000 C   0  0  0  0  0  0  0  0  0  0  0  0
    0.7500   -1.2990    0.0000 C   0  0  0  0  0  0  0  0  0  0  0  0
   -0.7500   -1.2990    0.0000 C   0  0  0  0  0  0  0  0  0  0  0  0
   -1.5000    0.0000    0.0000 C   0  0  0  0  0  0  0  0  0  0  0  0
   -3.0000    0.0000    0.0000 O   0  0  0  0  0  0  0  0  0  0  0  0
   -3.7500    1.2990    0.0000 C   0  0  0  0  0  0  0  0  0  0  0  0
   -5.2500    1.2990    0.0000 C   0  0  0  0  0  0  0  0  0  0  0  0
   -6.0000    2.5981    0.0000 C   0  0  0  0  0  0  0  0  0  0  0  0
   -7.5000    2.5981    0.0000 C   0  0  0  0  0  0  0  0  0  0  0  0
   -7.5000    4.0981    0.0000 F   0  0  0  0  0  0  0  0  0  0  0  0
   -7.5000    1.0981    0.0000 F   0  0  0  0  0  0  0  0  0  0  0  0
   -9.0000    2.5981    0.0000 C   0  0  0  0  0  0  0  0  0  0  0  0
   -9.0000    1.0981    0.0000 F   0  0  0  0  0  0  0  0  0  0  0  0
   -9.0000    4.0981    0.0000 F   0  0  0  0  0  0  0  0  0  0  0  0
  -10.5000    2.5981    0.0000 C   0  0  0  0  0  0  0  0  0  0  0  0
  -10.5000    4.0981    0.0000 F   0  0  0  0  0  0  0  0  0  0  0  0
  -10.5000    1.0981    0.0000 F   0  0  0  0  0  0  0  0  0  0  0  0
  -12.0000    2.5981    0.0000 C   0  0  0  0  0  0  0  0  0  0  0  0
  -12.0000    1.0981    0.0000 F   0  0  0  0  0  0  0  0  0  0  0  0
  -12.0000    4.0981    0.0000 F   0  0  0  0  0  0  0  0  0  0  0  0
  -13.5000    2.5981    0.0000 C   0  0  0  0  0  0  0  0  0  0  0  0
  -13.5000    4.0981    0.0000 F   0  0  0  0  0  0  0  0  0  0  0  0
  -13.5000    1.0981    0.0000 F   0  0  0  0  0  0  0  0  0  0  0  0
  -15.0000    2.5981    0.0000 C   0  0  0  0  0  0  0  0  0  0  0  0
  -15.0000    1.0981    0.0000 F   0  0  0  0  0  0  0  0  0  0  0  0
  -15.0000    4.0981    0.0000 F   0  0  0  0  0  0  0  0  0  0  0  0
  -16.5000    2.5981    0.0000 C   0  0  0  0  0  0  0  0  0  0  0  0
  -16.5000    4.0981    0.0000 F   0  0  0  0  0  0  0  0  0  0  0  0
  -16.5000    1.0981    0.0000 F   0  0  0  0  0  0  0  0  0  0  0  0
  -18.0000    2.5981    0.0000 C   0  0  0  0  0  0  0  0  0  0  0  0
  -19.5000    2.5981    0.0000 F   0  0  0  0  0  0  0  0  0  0  0  0
  -18.0000    1.0981    0.0000 F   0  0  0  0  0  0  0  0  0  0  0  0
  -18.0000    4.0981    0.0000 F   0  0  0  0  0  0  0  0  0  0  0  0
   -0.7500    1.2990    0.0000 C   0  0  0  0  0  0  0  0  0  0  0  0
    0.7500    1.2990    0.0000 C   0  0  0  0  0  0  0  0  0  0  0  0
  1  2  2  0
  2  3  1  0
  3  4  2  0
  4  5  1  0
  5  6  2  0
  6  7  1  0
  7  8  1  0
  8  9  1  0
  9 10  1  0
 10 11  1  0
 11 12  1  0
 11 13  1  0
 11 14  1  0
 14 15  1  0
 14 16  1  0
 14 17  1  0
 17 18  1  0
 17 19  1  0
 17 20  1  0
 20 21  1  0
 20 22  1  0
 20 23  1  0
 23 24  1  0
 23 25  1  0
 23 26  1  0
 26 27  1  0
 26 28  1  0
 26 29  1  0
 29 30  1  0
 29 31  1  0
 29 32  1  0
 32 33  1  0
 32 34  1  0
 32 35  1  0
  6 36  1  0
 36 37  2  0
 37  3  1  0
M  END
$$$$

     RDKit          2D

 19 18  0  0  0  0  0  0  0  0999 V2000
   -1.2990    0.7500    0.0000 F   0  0  0  0  0  0  0  0  0  0  0  0
    0.0000    0.0000    0.0000 C   0  0  0  0  0  0  0  0  0  0  0  0
   -0.0000   -1.5000    0.0000 C   0  0  0  0  0  0  0  0  0  0  0  0
    0.0000   -3.0000    0.0000 F   0  0  0  0  0  0  0  0  0  0  0  0
   -1.5000   -1.5000    0.0000 F   0  0  0  0  0  0  0  0  0  0  0  0
    1.5000   -1.5000    0.0000 F   0  0  0  0  0  0  0  0  0  0  0  0
    1.2990    0.7500    0.0000 C   0  0  0  0  0  0  0  0  0  0  0  0
    0.5678    1.7203    0.0000 F   0  0  0  0  0  0  0  0  0  0  0  0
    2.0490   -0.5490    0.0000 F   0  0  0  0  0  0  0  0  0  0  0  0
    2.5981    1.5000    0.0000 O   0  0  0  0  0  0  0  0  0  0  0  0
    2.5981    3.0000    0.0000 C   0  0  0  0  0  0  0  0  0  0  0  0
    3.8971    3.7500    0.0000 C   0  0  0  0  0  0  0  0  0  0  0  0
    5.1962    4.5000    0.0000 F   0  0  0  0  0  0  0  0  0  0  0  0
    3.1471    5.0490    0.0000 F   0  0  0  0  0  0  0  0  0  0  0  0
    4.6471    2.4510    0.0000 F   0  0  0  0  0  0  0  0  0  0  0  0
    1.2990    3.7500    0.0000 C   0  0  0  0  0  0  0  0  0  0  0  0
    0.0000    4.5000    0.0000 F   0  0  0  0  0  0  0  0  0  0  0  0
    0.5678    2.7797    0.0000 F   0  0  0  0  0  0  0  0  0  0  0  0
    2.0490    5.0490    0.0000 F   0  0  0  0  0  0  0  0  0  0  0  0
  1  2  1  0
  2  3  1  0
  3  4  1  0
  3  5  1  0
  3  6  1  0
  2  7  1  0
  7  8  1  0
  7  9  1  0
  7 10  1  0
 10 11  1  0
 11 12  1  0
 12 13  1  0
 12 14  1  0
 12 15  1  0
 11 16  1  0
 16 17  1  0
 16 18  1  0
 16 19  1  0
M  END
$$$$

     RDKit          2D

 18 19  0  0  0  0  0  0  0  0999 V2000
    5.4584   -5.2117    0.0000 F   0  0  0  0  0  0  0  0  0  0  0  0
    4.0095   -4.8234    0.0000 C   0  0  0  0  0  0  0  0  0  0  0  0
    3.8863   -5.7005    0.0000 F   0  0  0  0  0  0  0  0  0  0  0  0
    4.3978   -3.3745    0.0000 F   0  0  0  0  0  0  0  0  0  0  0  0
    2.5607   -4.4352    0.0000 C   0  0  0  0  0  0  0  0  0  0  0  0
    2.1724   -5.8841    0.0000 C   0  0  0  0  0  0  0  0  0  0  0  0
    1.7842   -7.3330    0.0000 F   0  0  0  0  0  0  0  0  0  0  0  0
    2.9937   -6.2159    0.0000 F   0  0  0  0  0  0  0  0  0  0  0  0
    0.7235   -5.4959    0.0000 F   0  0  0  0  0  0  0  0  0  0  0  0
    1.1118   -4.0470    0.0000 N   0  0  0  0  0  0  0  0  0  0  0  0
    1.5000   -2.5981    0.0000 C   0  0  0  0  0  0  0  0  0  0  0  0
    0.7500   -1.2990    0.0000 C   0  0  0  0  0  0  0  0  0  0  0  0
    1.5000    0.0000    0.0000 C   0  0  0  0  0  0  0  0  0  0  0  0
    0.7500    1.2990    0.0000 C   0  0  0  0  0  0  0  0  0  0  0  0
   -0.7500    1.2990    0.0000 C   0  0  0  0  0  0  0  0  0  0  0  0
   -1.5000    0.0000    0.0000 C   0  0  0  0  0  0  0  0  0  0  0  0
   -0.7500   -1.2990    0.0000 C   0  0  0  0  0  0  0  0  0  0  0  0
    2.9489   -2.9863    0.0000 S   0  0  0  0  0  0  0  0  0  0  0  0
  1  2  1  0
  2  3  1  0
  2  4  1  0
  2  5  1  0
  5  6  1  0
  6  7  1  0
  6  8  1  0
  6  9  1  0
  5 10  1  0
 10 11  2  0
 11 12  1  0
 12 13  2  0
 13 14  1  0
 14 15  2  0
 15 16  1  0
 16 17  2  0
 11 18  1  0
 18  5  1  0
 17 12  1  0
M  END
$$$$

     RDKit          2D

 20 20  0  0  0  0  0  0  0  0999 V2000
    3.0000    0.0000    0.0000 C   0  0  0  0  0  0  0  0  0  0  0  0
    1.5000    0.0000    0.0000 N   0  0  0  0  0  0  0  0  0  0  0  0
    0.7500   -1.2990    0.0000 C   0  0  0  0  0  0  0  0  0  0  0  0
   -0.7500   -1.2990    0.0000 C   0  0  0  0  0  0  0  0  0  0  0  0
   -1.5000   -2.5981    0.0000 C   0  0  0  0  0  0  0  0  0  0  0  0
   -2.7990   -1.8481    0.0000 F   0  0  0  0  0  0  0  0  0  0  0  0
   -0.2010   -3.3481    0.0000 F   0  0  0  0  0  0  0  0  0  0  0  0
   -2.2500   -3.8971    0.0000 C   0  0  0  0  0  0  0  0  0  0  0  0
   -0.9510   -4.6471    0.0000 F   0  0  0  0  0  0  0  0  0  0  0  0
   -3.5490   -3.1471    0.0000 F   0  0  0  0  0  0  0  0  0  0  0  0
   -3.0000   -5.1962    0.0000 C   0  0  0  0  0  0  0  0  0  0  0  0
   -3.7500   -6.4952    0.0000 F   0  0  0  0  0  0  0  0  0  0  0  0
   -4.2990   -4.4462    0.0000 F   0  0  0  0  0  0  0  0  0  0  0  0
   -1.7010   -5.9462    0.0000 F   0  0  0  0  0  0  0  0  0  0  0  0
   -1.5000    0.0000    0.0000 C   0  0  0  0  0  0  0  0  0  0  0  0
   -3.0000    0.0000    0.0000 O   0  0  0  0  0  0  0  0  0  0  0  0
   -0.7500    1.2990    0.0000 N   0  0  0  0  0  0  0  0  0  0  0  0
   -1.5000    2.5981    0.0000 C   0  0  0  0  0  0  0  0  0  0  0  0
    0.7500    1.2990    0.0000 C   0  0  0  0  0  0  0  0  0  0  0  0
    1.5000    2.5981    0.0000 O   0  0  0  0  0  0  0  0  0  0  0  0
  1  2  1  0
  2  3  1  0
  3  4  2  0
  4  5  1  0
  5  6  1  0
  5  7  1  0
  5  8  1  0
  8  9  1  0
  8 10  1  0
  8 11  1  0
 11 12  1  0
 11 13  1  0
 11 14  1  0
  4 15  1  0
 15 16  2  0
 15 17  1  0
 17 18  1  0
 17 19  1  0
 19 20  2  0
 19  2  1  0
M  END
$$$$

     RDKit          2D

 29 30  0  0  0  0  0  0  0  0999 V2000
    7.5000    0.0000    0.0000 F   0  0  0  0  0  0  0  0  0  0  0  0
    6.0000    0.0000    0.0000 C   0  0  0  0  0  0  0  0  0  0  0  0
    6.0000   -1.5000    0.0000 F   0  0  0  0  0  0  0  0  0  0  0  0
    6.0000    1.5000    0.0000 F   0  0  0  0  0  0  0  0  0  0  0  0
    4.5000    0.0000    0.0000 C   0  0  0  0  0  0  0  0  0  0  0  0
    4.5000    1.5000    0.0000 F   0  0  0  0  0  0  0  0  0  0  0  0
    4.5000   -1.5000    0.0000 F   0  0  0  0  0  0  0  0  0  0  0  0
    3.0000    0.0000    0.0000 C   0  0  0  0  0  0  0  0  0  0  0  0
    3.0000   -1.5000    0.0000 F   0  0  0  0  0  0  0  0  0  0  0  0
    3.0000    1.5000    0.0000 F   0  0  0  0  0  0  0  0  0  0  0  0
    1.5000    0.0000    0.0000 C   0  0  0  0  0  0  0  0  0  0  0  0
    0.7500   -1.2990    0.0000 C   0  0  0  0  0  0  0  0  0  0  0  0
   -0.7500   -1.2990    0.0000 C   0  0  0  0  0  0  0  0  0  0  0  0
   -1.5000    0.0000    0.0000 C   0  0  0  0  0  0  0  0  0  0  0  0
   -2.9672    0.3119    0.0000 O   0  0  0  0  0  0  0  0  0  0  0  0
   -3.1240    1.8037    0.0000 C   0  0  0  0  0  0  0  0  0  0  0  0
   -4.4231    2.5537    0.0000 C   0  0  0  0  0  0  0  0  0  0  0  0
   -3.6731    3.8527    0.0000 F   0  0  0  0  0  0  0  0  0  0  0  0
   -5.1731    1.2546    0.0000 F   0  0  0  0  0  0  0  0  0  0  0  0
   -5.7221    3.3037    0.0000 C   0  0  0  0  0  0  0  0  0  0  0  0
   -6.4721    2.0046    0.0000 F   0  0  0  0  0  0  0  0  0  0  0  0
   -4.9721    4.6027    0.0000 F   0  0  0  0  0  0  0  0  0  0  0  0
   -7.0211    4.0537    0.0000 C   0  0  0  0  0  0  0  0  0  0  0  0
   -8.3202    4.8037    0.0000 F   0  0  0  0  0  0  0  0  0  0  0  0
   -6.2711    5.3527    0.0000 F   0  0  0  0  0  0  0  0  0  0  0  0
   -7.7711    2.7546    0.0000 F   0  0  0  0  0  0  0  0  0  0  0  0
   -1.7537    2.4138    0.0000 N   0  0  0  0  0  0  0  0  0  0  0  0
   -0.7500    1.2990    0.0000 C   0  0  0  0  0  0  0  0  0  0  0  0
    0.7500    1.2990    0.0000 C   0  0  0  0  0  0  0  0  0  0  0  0
  1  2  1  0
  2  3  1  0
  2  4  1  0
  2  5  1  0
  5  6  1  0
  5  7  1  0
  5  8  1  0
  8  9  1  0
  8 10  1  0
  8 11  1  0
 11 12  2  0
 12 13  1  0
 13 14  2  0
 14 15  1  0
 15 16  1  0
 16 17  1  0
 17 18  1  0
 17 19  1  0
 17 20  1  0
 20 21  1  0
 20 22  1  0
 20 23  1  0
 23 24  1  0
 23 25  1  0
 23 26  1  0
 16 27  2  0
 27 28  1  0
 28 29  2  0
 29 11  1  0
 28 14  1  0
M  END
$$$$

     RDKit          2D

 51 51  0  0  0  0  0  0  0  0999 V2000
   11.2500   -1.2990    0.0000 F   0  0  0  0  0  0  0  0  0  0  0  0
    9.7500   -1.2990    0.0000 C   0  0  0  0  0  0  0  0  0  0  0  0
    9.7500    0.2010    0.0000 F   0  0  0  0  0  0  0  0  0  0  0  0
    9.7500   -2.7990    0.0000 F   0  0  0  0  0  0  0  0  0  0  0  0
    8.2500   -1.2990    0.0000 C   0  0  0  0  0  0  0  0  0  0  0  0
    8.2500   -2.7990    0.0000 F   0  0  0  0  0  0  0  0  0  0  0  0
    8.2500    0.2010    0.0000 F   0  0  0  0  0  0  0  0  0  0  0  0
    6.7500   -1.2990    0.0000 C   0  0  0  0  0  0  0  0  0  0  0  0
    6.7500    0.2010    0.0000 F   0  0  0  0  0  0  0  0  0  0  0  0
    6.7500   -2.7990    0.0000 F   0  0  0  0  0  0  0  0  0  0  0  0
    5.2500   -1.2990    0.0000 C   0  0  0  0  0  0  0  0  0  0  0  0
    5.2500   -2.7990    0.0000 F   0  0  0  0  0  0  0  0  0  0  0  0
    5.2500    0.2010    0.0000 F   0  0  0  0  0  0  0  0  0  0  0  0
    3.7500   -1.2990    0.0000 C   0  0  0  0  0  0  0  0  0  0  0  0
    3.0000    0.0000    0.0000 O   0  0  0  0  0  0  0  0  0  0  0  0
    1.5000    0.0000    0.0000 C   0  0  0  0  0  0  0  0  0  0  0  0
    0.7500   -1.2990    0.0000 N   0  0  0  0  0  0  0  0  0  0  0  0
   -0.7500   -1.2990    0.0000 C   0  0  0  0  0  0  0  0  0  0  0  0
   -1.5000   -2.5981    0.0000 O   0  0  0  0  0  0  0  0  0  0  0  0
   -3.0000   -2.5981    0.0000 C   0  0  0  0  0  0  0  0  0  0  0  0
   -3.7500   -3.8971    0.0000 C   0  0  0  0  0  0  0  0  0  0  0  0
   -5.0490   -3.1471    0.0000 F   0  0  0  0  0  0  0  0  0  0  0  0
   -2.4510   -4.6471    0.0000 F   0  0  0  0  0  0  0  0  0  0  0  0
   -4.5000   -5.1962    0.0000 C   0  0  0  0  0  0  0  0  0  0  0  0
   -3.2010   -5.9462    0.0000 F   0  0  0  0  0  0  0  0  0  0  0  0
   -5.7990   -4.4462    0.0000 F   0  0  0  0  0  0  0  0  0  0  0  0
   -5.2500   -6.4952    0.0000 C   0  0  0  0  0  0  0  0  0  0  0  0
   -6.5490   -5.7452    0.0000 F   0  0  0  0  0  0  0  0  0  0  0  0
   -3.9510   -7.2452    0.0000 F   0  0  0  0  0  0  0  0  0  0  0  0
   -6.0000   -7.7942    0.0000 C   0  0  0  0  0  0  0  0  0  0  0  0
   -6.7500   -9.0933    0.0000 F   0  0  0  0  0  0  0  0  0  0  0  0
   -4.7010   -8.5442    0.0000 F   0  0  0  0  0  0  0  0  0  0  0  0
   -7.2990   -7.0442    0.0000 F   0  0  0  0  0  0  0  0  0  0  0  0
   -1.5000    0.0000    0.0000 N   0  0  0  0  0  0  0  0  0  0  0  0
   -0.7500    1.2990    0.0000 C   0  0  0  0  0  0  0  0  0  0  0  0
   -1.5000    2.5981    0.0000 O   0  0  0  0  0  0  0  0  0  0  0  0
   -0.7500    3.8971    0.0000 C   0  0  0  0  0  0  0  0  0  0  0  0
   -1.5000    5.1962    0.0000 C   0  0  0  0  0  0  0  0  0  0  0  0
   -0.2010    5.9462    0.0000 F   0  0  0  0  0  0  0  0  0  0  0  0
   -2.7990    4.4462    0.0000 F   0  0  0  0  0  0  0  0  0  0  0  0
   -2.2500    6.4952    0.0000 C   0  0  0  0  0  0  0  0  0  0  0  0
   -3.5490    5.7452    0.0000 F   0  0  0  0  0  0  0  0  0  0  0  0
   -0.9510    7.2452    0.0000 F   0  0  0  0  0  0  0  0  0  0  0  0
   -3.0000    7.7942    0.0000 C   0  0  0  0  0  0  0  0  0  0  0  0
   -1.7010    8.5442    0.0000 F   0  0  0  0  0  0  0  0  0  0  0  0
   -4.2990    7.0442    0.0000 F   0  0  0  0  0  0  0  0  0  0  0  0
   -3.7500    9.0933    0.0000 C   0  0  0  0  0  0  0  0  0  0  0  0
   -4.5000   10.3923    0.0000 F   0  0  0  0  0  0  0  0  0  0  0  0
   -5.0490    8.3433    0.0000 F   0  0  0  0  0  0  0  0  0  0  0  0
   -2.4510    9.8433    0.0000 F   0  0  0  0  0  0  0  0  0  0  0  0
    0.7500    1.2990    0.0000 N   0  0  0  0  0  0  0  0  0  0  0  0
  1  2  1  0
  2  3  1  0
  2  4  1  0
  2  5  1  0
  5  6  1  0
  5  7  1  0
  5  8  1  0
  8  9  1  0
  8 10  1  0
  8 11  1  0
 11 12  1  0
 11 13  1  0
 11 14  1  0
 14 15  1  0
 15 16  1  0
 16 17  2  0
 17 18  1  0
 18 19  1  0
 19 20  1  0
 20 21  1  0
 21 22  1  0
 21 23  1  0
 21 24  1  0
 24 25  1  0
 24 26  1  0
 24 27  1  0
 27 28  1  0
 27 29  1  0
 27 30  1  0
 30 31  1  0
 30 32  1  0
 30 33  1  0
 18 34  2  0
 34 35  1  0
 35 36  1  0
 36 37  1  0
 37 38  1  0
 38 39  1  0
 38 40  1  0
 38 41  1  0
 41 42  1  0
 41 43  1  0
 41 44  1  0
 44 45  1  0
 44 46  1  0
 44 47  1  0
 47 48  1  0
 47 49  1  0
 47 50  1  0
 35 51  2  0
 51 16  1  0
M  END
$$$$

     RDKit          2D

 23 24  0  0  0  0  0  0  0  0999 V2000
   -0.7500   -3.8971    0.0000 O   0  0  0  0  0  0  0  0  0  0  0  0
    0.7500   -3.8971    0.0000 C   0  0  0  0  0  0  0  0  0  0  0  0
    1.5000   -2.5981    0.0000 N   0  0  0  0  0  0  0  0  0  0  0  0
    0.7500   -1.2990    0.0000 C   0  0  0  0  0  0  0  0  0  0  0  0
    1.5000    0.0000    0.0000 C   0  0  0  0  0  0  0  0  0  0  0  0
    0.7500    1.2990    0.0000 C   0  0  0  0  0  0  0  0  0  0  0  0
   -0.7500    1.2990    0.0000 C   0  0  0  0  0  0  0  0  0  0  0  0
   -1.5000    2.5981    0.0000 O   0  0  0  0  0  0  0  0  0  0  0  0
   -0.7500    3.8971    0.0000 C   0  0  0  0  0  0  0  0  0  0  0  0
    0.5490    3.1471    0.0000 F   0  0  0  0  0  0  0  0  0  0  0  0
   -2.0490    4.6471    0.0000 F   0  0  0  0  0  0  0  0  0  0  0  0
    0.0000    5.1962    0.0000 C   0  0  0  0  0  0  0  0  0  0  0  0
    0.7500    6.4952    0.0000 F   0  0  0  0  0  0  0  0  0  0  0  0
    1.2990    4.4462    0.0000 F   0  0  0  0  0  0  0  0  0  0  0  0
   -1.2990    5.9462    0.0000 F   0  0  0  0  0  0  0  0  0  0  0  0
   -1.5000    0.0000    0.0000 C   0  0  0  0  0  0  0  0  0  0  0  0
   -0.7500   -1.2990    0.0000 C   0  0  0  0  0  0  0  0  0  0  0  0
    1.5000   -5.1962    0.0000 C   0  0  0  0  0  0  0  0  0  0  0  0
    0.7500   -6.4952    0.0000 C   0  0  0  0  0  0  0  0  0  0  0  0
    1.5000   -7.7942    0.0000 C   0  0  0  0  0  0  0  0  0  0  0  0
    3.0000   -7.7942    0.0000 C   0  0  0  0  0  0  0  0  0  0  0  0
    3.7500   -6.4952    0.0000 N   0  0  0  0  0  0  0  0  0  0  0  0
    3.0000   -5.1962    0.0000 C   0  0  0  0  0  0  0  0  0  0  0  0
  1  2  2  0
  2  3  1  0
  3  4  1  0
  4  5  2  0
  5  6  1  0
  6  7  2  0
  7  8  1  0
  8  9  1  0
  9 10  1  0
  9 11  1  0
  9 12  1  0
 12 13  1  0
 12 14  1  0
 12 15  1  0
  7 16  1  0
 16 17  2  0
  2 18  1  0
 18 19  2  0
 19 20  1  0
 20 21  2  0
 21 22  1  0
 22 23  2  0
 17  4  1  0
 23 18  1  0
M  END
$$$$

     RDKit          2D

 22 22  0  0  0  0  0  0  0  0999 V2000
    3.5054    2.0074    0.0000 F   0  0  0  0  0  0  0  0  0  0  0  0
    2.3907    1.0037    0.0000 C   0  0  0  0  0  0  0  0  0  0  0  0
    1.3870    2.1184    0.0000 F   0  0  0  0  0  0  0  0  0  0  0  0
    2.9923    0.4807    0.0000 F   0  0  0  0  0  0  0  0  0  0  0  0
    1.2760    0.0000    0.0000 C   0  0  0  0  0  0  0  0  0  0  0  0
    2.3907   -1.0037    0.0000 C   0  0  0  0  0  0  0  0  0  0  0  0
    3.6194   -1.8640    0.0000 F   0  0  0  0  0  0  0  0  0  0  0  0
    2.9923   -0.4807    0.0000 F   0  0  0  0  0  0  0  0  0  0  0  0
    1.6866   -2.3282    0.0000 F   0  0  0  0  0  0  0  0  0  0  0  0
    0.3943    1.2135    0.0000 O   0  0  0  0  0  0  0  0  0  0  0  0
   -1.0323    0.7500    0.0000 P   0  0  0  0  0  0  0  0  0  0  0  0
   -2.2458    1.6317    0.0000 Cl  0  0  0  0  0  0  0  0  0  0  0  0
   -1.0323   -0.7500    0.0000 O   0  0  0  0  0  0  0  0  0  0  0  0
    0.3943   -1.2135    0.0000 C   0  0  0  0  0  0  0  0  0  0  0  0
    1.6933   -1.9635    0.0000 C   0  0  0  0  0  0  0  0  0  0  0  0
    2.8913   -2.8663    0.0000 F   0  0  0  0  0  0  0  0  0  0  0  0
    1.1073   -3.3443    0.0000 F   0  0  0  0  0  0  0  0  0  0  0  0
    2.7354   -0.8846    0.0000 F   0  0  0  0  0  0  0  0  0  0  0  0
   -0.2158   -2.5838    0.0000 C   0  0  0  0  0  0  0  0  0  0  0  0
   -0.8259   -3.9542    0.0000 F   0  0  0  0  0  0  0  0  0  0  0  0
   -1.5861   -1.9737    0.0000 F   0  0  0  0  0  0  0  0  0  0  0  0
    1.0699   -3.3564    0.0000 F   0  0  0  0  0  0  0  0  0  0  0  0
  1  2  1  0
  2  3  1  0
  2  4  1  0
  2  5  1  0
  5  6  1  0
  6  7  1  0
  6  8  1  0
  6  9  1  0
  5 10  1  0
 10 11  1  0
 11 12  1  0
 11 13  1  0
 13 14  1  0
 14 15  1  0
 15 16  1  0
 15 17  1  0
 15 18  1  0
 14 19  1  0
 19 20  1  0
 19 21  1  0
 19 22  1  0
 14  5  1  0
M  END
$$$$

     RDKit          2D

 20 19  0  0  0  0  0  0  0  0999 V2000
    0.0000    0.0000    0.0000 C   0  0  0  0  0  0  0  0  0  0  0  0
    1.2990    0.7500    0.0000 O   0  0  0  0  0  0  0  0  0  0  0  0
    2.5981   -0.0000    0.0000 P   0  0  0  0  0  0  0  0  0  0  0  0
    3.8971   -0.7500    0.0000 O   0  0  0  0  0  0  0  0  0  0  0  0
    1.8481   -1.2990    0.0000 O   0  0  0  0  0  0  0  0  0  0  0  0
    2.5981   -2.5981    0.0000 C   0  0  0  0  0  0  0  0  0  0  0  0
    1.8481   -3.8971    0.0000 C   0  0  0  0  0  0  0  0  0  0  0  0
    3.1471   -4.6471    0.0000 F   0  0  0  0  0  0  0  0  0  0  0  0
    0.5490   -3.1471    0.0000 F   0  0  0  0  0  0  0  0  0  0  0  0
    1.0981   -5.1962    0.0000 C   0  0  0  0  0  0  0  0  0  0  0  0
   -0.4019   -5.1962    0.0000 F   0  0  0  0  0  0  0  0  0  0  0  0
    1.8481   -6.4952    0.0000 F   0  0  0  0  0  0  0  0  0  0  0  0
    3.3481    1.2990    0.0000 O   0  0  0  0  0  0  0  0  0  0  0  0
    4.8481    1.2990    0.0000 C   0  0  0  0  0  0  0  0  0  0  0  0
    5.5981    2.5981    0.0000 C   0  0  0  0  0  0  0  0  0  0  0  0
    6.8971    1.8481    0.0000 F   0  0  0  0  0  0  0  0  0  0  0  0
    4.2990    3.3481    0.0000 F   0  0  0  0  0  0  0  0  0  0  0  0
    6.3481    3.8971    0.0000 C   0  0  0  0  0  0  0  0  0  0  0  0
    5.5981    5.1962    0.0000 F   0  0  0  0  0  0  0  0  0  0  0  0
    7.8481    3.8971    0.0000 F   0  0  0  0  0  0  0  0  0  0  0  0
  1  2  1  0
  2  3  1  0
  3  4  2  0
  3  5  1  0
  5  6  1  0
  6  7  1  0
  7  8  1  0
  7  9  1  0
  7 10  1  0
 10 11  1  0
 10 12  1  0
  3 13  1  0
 13 14  1  0
 14 15  1  0
 15 16  1  0
 15 17  1  0
 15 18  1  0
 18 19  1  0
 18 20  1  0
M  END
$$$$

     RDKit          2D

 17 17  0  0  0  0  0  0  0  0999 V2000
    3.0000    0.0000    0.0000 O   0  0  0  0  0  0  0  0  0  0  0  0
    1.5000    0.0000    0.0000 C   0  0  0  0  0  0  0  0  0  0  0  0
    0.7500   -1.2990    0.0000 C   0  0  0  0  0  0  0  0  0  0  0  0
    2.1595   -1.8121    0.0000 F   0  0  0  0  0  0  0  0  0  0  0  0
    0.4895   -2.7762    0.0000 F   0  0  0  0  0  0  0  0  0  0  0  0
   -0.7500   -1.2990    0.0000 C   0  0  0  0  0  0  0  0  0  0  0  0
   -0.4895   -2.7762    0.0000 F   0  0  0  0  0  0  0  0  0  0  0  0
   -2.1595   -1.8121    0.0000 F   0  0  0  0  0  0  0  0  0  0  0  0
   -1.5000    0.0000    0.0000 C   0  0  0  0  0  0  0  0  0  0  0  0
   -2.6491   -0.9642    0.0000 F   0  0  0  0  0  0  0  0  0  0  0  0
   -2.6491    0.9642    0.0000 F   0  0  0  0  0  0  0  0  0  0  0  0
   -0.7500    1.2990    0.0000 C   0  0  0  0  0  0  0  0  0  0  0  0
   -2.1595    1.8121    0.0000 F   0  0  0  0  0  0  0  0  0  0  0  0
   -0.4895    2.7762    0.0000 F   0  0  0  0  0  0  0  0  0  0  0  0
    0.7500    1.2990    0.0000 C   0  0  0  0  0  0  0  0  0  0  0  0
    0.4895    2.7762    0.0000 F   0  0  0  0  0  0  0  0  0  0  0  0
    2.1595    1.8121    0.0000 F   0  0  0  0  0  0  0  0  0  0  0  0
  1  2  2  0
  2  3  1  0
  3  4  1  0
  3  5  1  0
  3  6  1  0
  6  7  1  0
  6  8  1  0
  6  9  1  0
  9 10  1  0
  9 11  1  0
  9 12  1  0
 12 13  1  0
 12 14  1  0
 12 15  1  0
 15 16  1  0
 15 17  1  0
 15  2  1  0
M  END
$$$$

     RDKit          2D

 15 14  0  0  0  0  0  0  0  0999 V2000
   -3.0000   -2.5981    0.0000 O   0  0  0  0  0  0  0  0  0  0  0  0
   -2.2500   -1.2990    0.0000 S   0  0  0  0  0  0  0  0  0  0  0  0
   -3.5490   -0.5490    0.0000 O   0  0  0  0  0  0  0  0  0  0  0  0
   -0.9510   -2.0490    0.0000 F   0  0  0  0  0  0  0  0  0  0  0  0
   -1.5000    0.0000    0.0000 O   0  0  0  0  0  0  0  0  0  0  0  0
    0.0000    0.0000    0.0000 C   0  0  0  0  0  0  0  0  0  0  0  0
    0.0000    1.5000    0.0000 F   0  0  0  0  0  0  0  0  0  0  0  0
   -0.0000   -1.5000    0.0000 F   0  0  0  0  0  0  0  0  0  0  0  0
    1.5000    0.0000    0.0000 C   0  0  0  0  0  0  0  0  0  0  0  0
    1.5000   -1.5000    0.0000 F   0  0  0  0  0  0  0  0  0  0  0  0
    1.5000    1.5000    0.0000 F   0  0  0  0  0  0  0  0  0  0  0  0
    3.0000    0.0000    0.0000 C   0  0  0  0  0  0  0  0  0  0  0  0
    4.5000    0.0000    0.0000 F   0  0  0  0  0  0  0  0  0  0  0  0
    3.0000    1.5000    0.0000 F   0  0  0  0  0  0  0  0  0  0  0  0
    3.0000   -1.5000    0.0000 F   0  0  0  0  0  0  0  0  0  0  0  0
  1  2  2  0
  2  3  2  0
  2  4  1  0
  2  5  1  0
  5  6  1  0
  6  7  1  0
  6  8  1  0
  6  9  1  0
  9 10  1  0
  9 11  1  0
  9 12  1  0
 12 13  1  0
 12 14  1  0
 12 15  1  0
M  END
$$$$

     RDKit          2D

 32 33  0  0  0  0  0  0  0  0999 V2000
    7.5000    0.0000    0.0000 F   0  0  0  0  0  0  0  0  0  0  0  0
    6.0000    0.0000    0.0000 C   0  0  0  0  0  0  0  0  0  0  0  0
    6.0000   -1.5000    0.0000 F   0  0  0  0  0  0  0  0  0  0  0  0
    6.0000    1.5000    0.0000 F   0  0  0  0  0  0  0  0  0  0  0  0
    4.5000    0.0000    0.0000 C   0  0  0  0  0  0  0  0  0  0  0  0
    4.5000    1.5000    0.0000 F   0  0  0  0  0  0  0  0  0  0  0  0
    4.5000   -1.5000    0.0000 F   0  0  0  0  0  0  0  0  0  0  0  0
    3.0000    0.0000    0.0000 C   0  0  0  0  0  0  0  0  0  0  0  0
    3.0000   -1.5000    0.0000 F   0  0  0  0  0  0  0  0  0  0  0  0
    3.0000    1.5000    0.0000 F   0  0  0  0  0  0  0  0  0  0  0  0
    1.5000    0.0000    0.0000 C   0  0  0  0  0  0  0  0  0  0  0  0
    0.7500   -1.2990    0.0000 N   0  0  0  0  0  0  0  0  0  0  0  0
   -0.7500   -1.2990    0.0000 C   0  0  0  0  0  0  0  0  0  0  0  0
   -1.5000   -2.5981    0.0000 C   0  0  0  0  0  0  0  0  0  0  0  0
   -3.0000   -2.5981    0.0000 C   0  0  0  0  0  0  0  0  0  0  0  0
   -3.7500   -3.8971    0.0000 C   0  0  0  0  0  0  0  0  0  0  0  0
   -3.0000   -5.1962    0.0000 C   0  0  0  0  0  0  0  0  0  0  0  0
   -1.5000   -5.1962    0.0000 C   0  0  0  0  0  0  0  0  0  0  0  0
   -0.7500   -3.8971    0.0000 C   0  0  0  0  0  0  0  0  0  0  0  0
   -1.5000    0.0000    0.0000 N   0  0  0  0  0  0  0  0  0  0  0  0
   -0.7500    1.2990    0.0000 C   0  0  0  0  0  0  0  0  0  0  0  0
   -1.5000    2.5981    0.0000 C   0  0  0  0  0  0  0  0  0  0  0  0
   -0.2010    3.3481    0.0000 F   0  0  0  0  0  0  0  0  0  0  0  0
   -2.7990    1.8481    0.0000 F   0  0  0  0  0  0  0  0  0  0  0  0
   -2.2500    3.8971    0.0000 C   0  0  0  0  0  0  0  0  0  0  0  0
   -3.5490    3.1471    0.0000 F   0  0  0  0  0  0  0  0  0  0  0  0
   -0.9510    4.6471    0.0000 F   0  0  0  0  0  0  0  0  0  0  0  0
   -3.0000    5.1962    0.0000 C   0  0  0  0  0  0  0  0  0  0  0  0
   -3.7500    6.4952    0.0000 F   0  0  0  0  0  0  0  0  0  0  0  0
   -1.7010    5.9462    0.0000 F   0  0  0  0  0  0  0  0  0  0  0  0
   -4.2990    4.4462    0.0000 F   0  0  0  0  0  0  0  0  0  0  0  0
    0.7500    1.2990    0.0000 N   0  0  0  0  0  0  0  0  0  0  0  0
  1  2  1  0
  2  3  1  0
  2  4  1  0
  2  5  1  0
  5  6  1  0
  5  7  1  0
  5  8  1  0
  8  9  1  0
  8 10  1  0
  8 11  1  0
 11 12  2  0
 12 13  1  0
 13 14  1  0
 14 15  2  0
 15 16  1  0
 16 17  2  0
 17 18  1  0
 18 19  2  0
 13 20  2  0
 20 21  1  0
 21 22  1  0
 22 23  1  0
 22 24  1  0
 22 25  1  0
 25 26  1  0
 25 27  1  0
 25 28  1  0
 28 29  1  0
 28 30  1  0
 28 31  1  0
 21 32  2  0
 32 11  1  0
 19 14  1  0
M  END
$$$$

     RDKit          2D

 13 12  0  0  0  0  0  0  0  0999 V2000
    0.0000    0.0000    0.0000 C   0  0  0  0  0  0  0  0  0  0  0  0
    1.2990    0.7500    0.0000 C   0  0  0  0  0  0  0  0  0  0  0  0
    2.5981   -0.0000    0.0000 C   0  0  0  0  0  0  0  0  0  0  0  0
    3.8971    0.7500    0.0000 C   0  0  0  0  0  0  0  0  0  0  0  0
    4.6471   -0.5490    0.0000 F   0  0  0  0  0  0  0  0  0  0  0  0
    3.1471    2.0490    0.0000 F   0  0  0  0  0  0  0  0  0  0  0  0
    5.1962    1.5000    0.0000 C   0  0  0  0  0  0  0  0  0  0  0  0
    4.4462    2.7990    0.0000 F   0  0  0  0  0  0  0  0  0  0  0  0
    5.9462    0.2010    0.0000 F   0  0  0  0  0  0  0  0  0  0  0  0
    6.4952    2.2500    0.0000 C   0  0  0  0  0  0  0  0  0  0  0  0
    7.7942    3.0000    0.0000 F   0  0  0  0  0  0  0  0  0  0  0  0
    7.2452    0.9510    0.0000 F   0  0  0  0  0  0  0  0  0  0  0  0
    5.7452    3.5490    0.0000 F   0  0  0  0  0  0  0  0  0  0  0  0
  1  2  2  0
  2  3  1  0
  3  4  1  0
  4  5  1  0
  4  6  1  0
  4  7  1  0
  7  8  1  0
  7  9  1  0
  7 10  1  0
 10 11  1  0
 10 12  1  0
 10 13  1  0
M  END
$$$$

     RDKit          2D

 28 28  0  0  0  0  0  0  0  0999 V2000
    7.9643    6.0222    0.0000 F   0  0  0  0  0  0  0  0  0  0  0  0
    6.8496    5.0185    0.0000 C   0  0  0  0  0  0  0  0  0  0  0  0
    7.8533    3.9038    0.0000 F   0  0  0  0  0  0  0  0  0  0  0  0
    5.8459    6.1332    0.0000 F   0  0  0  0  0  0  0  0  0  0  0  0
    5.7348    4.0148    0.0000 C   0  0  0  0  0  0  0  0  0  0  0  0
    4.7311    5.1295    0.0000 F   0  0  0  0  0  0  0  0  0  0  0  0
    6.7385    2.9001    0.0000 F   0  0  0  0  0  0  0  0  0  0  0  0
    4.6201    3.0111    0.0000 C   0  0  0  0  0  0  0  0  0  0  0  0
    5.6238    1.8964    0.0000 F   0  0  0  0  0  0  0  0  0  0  0  0
    3.6164    4.1258    0.0000 F   0  0  0  0  0  0  0  0  0  0  0  0
    3.5054    2.0074    0.0000 C   0  0  0  0  0  0  0  0  0  0  0  0
    2.5017    3.1221    0.0000 F   0  0  0  0  0  0  0  0  0  0  0  0
    4.5091    0.8927    0.0000 F   0  0  0  0  0  0  0  0  0  0  0  0
    2.3907    1.0037    0.0000 C   0  0  0  0  0  0  0  0  0  0  0  0
    3.3944   -0.1110    0.0000 F   0  0  0  0  0  0  0  0  0  0  0  0
    1.3870    2.1184    0.0000 F   0  0  0  0  0  0  0  0  0  0  0  0
    1.2760    0.0000    0.0000 C   0  0  0  0  0  0  0  0  0  0  0  0
    2.3907   -1.0037    0.0000 F   0  0  0  0  0  0  0  0  0  0  0  0
    0.3943    1.2135    0.0000 O   0  0  0  0  0  0  0  0  0  0  0  0
   -1.0323    0.7500    0.0000 C   0  0  0  0  0  0  0  0  0  0  0  0
   -2.5241    0.5932    0.0000 F   0  0  0  0  0  0  0  0  0  0  0  0
   -1.3442    2.2172    0.0000 F   0  0  0  0  0  0  0  0  0  0  0  0
   -1.0323   -0.7500    0.0000 C   0  0  0  0  0  0  0  0  0  0  0  0
   -1.3442   -2.2172    0.0000 F   0  0  0  0  0  0  0  0  0  0  0  0
   -2.5241   -0.5932    0.0000 F   0  0  0  0  0  0  0  0  0  0  0  0
    0.3943   -1.2135    0.0000 C   0  0  0  0  0  0  0  0  0  0  0  0
    1.6933   -1.9635    0.0000 F   0  0  0  0  0  0  0  0  0  0  0  0
   -0.2158   -2.5838    0.0000 F   0  0  0  0  0  0  0  0  0  0  0  0
  1  2  1  0
  2  3  1  0
  2  4  1  0
  2  5  1  0
  5  6  1  0
  5  7  1  0
  5  8  1  0
  8  9  1  0
  8 10  1  0
  8 11  1  0
 11 12  1  0
 11 13  1  0
 11 14  1  0
 14 15  1  0
 14 16  1  0
 14 17  1  0
 17 18  1  0
 17 19  1  0
 19 20  1  0
 20 21  1  0
 20 22  1  0
 20 23  1  0
 23 24  1  0
 23 25  1  0
 23 26  1  0
 26 27  1  0
 26 28  1  0
 26 17  1  0
M  END
$$$$

     RDKit          2D

  9  8  0  0  0  0  0  0  0  0999 V2000
    2.5981    3.0000    0.0000 F   0  0  0  0  0  0  0  0  0  0  0  0
    2.5981    1.5000    0.0000 C   0  0  0  0  0  0  0  0  0  0  0  0
    3.8971    0.7500    0.0000 F   0  0  0  0  0  0  0  0  0  0  0  0
    1.2990    0.7500    0.0000 C   0  0  0  0  0  0  0  0  0  0  0  0
    2.0490   -0.5490    0.0000 F   0  0  0  0  0  0  0  0  0  0  0  0
    0.5490    2.0490    0.0000 F   0  0  0  0  0  0  0  0  0  0  0  0
    0.0000    0.0000    0.0000 C   0  0  0  0  0  0  0  0  0  0  0  0
   -1.2990    0.7500    0.0000 O   0  0  0  0  0  0  0  0  0  0  0  0
   -2.5981    0.0000    0.0000 Cl  0  0  0  0  0  0  0  0  0  0  0  0
  1  2  1  0
  2  3  1  0
  2  4  1  0
  4  5  1  0
  4  6  1  0
  4  7  1  0
  7  8  1  0
  8  9  1  0
M  END
$$$$

     RDKit          2D

 23 22  0  0  0  0  0  0  0  0999 V2000
   -3.8971    0.7500    0.0000 O   0  0  0  0  0  0  0  0  0  0  0  0
   -2.5981    0.0000    0.0000 S   0  0  0  0  0  0  0  0  0  0  0  0
   -2.5981   -1.5000    0.0000 F   0  0  0  0  0  0  0  0  0  0  0  0
   -1.2990    0.7500    0.0000 O   0  0  0  0  0  0  0  0  0  0  0  0
    0.0000    0.0000    0.0000 C   0  0  0  0  0  0  0  0  0  0  0  0
    1.2990    0.7500    0.0000 C   0  0  0  0  0  0  0  0  0  0  0  0
    2.0490   -0.5490    0.0000 F   0  0  0  0  0  0  0  0  0  0  0  0
    0.5490    2.0490    0.0000 F   0  0  0  0  0  0  0  0  0  0  0  0
    2.5981    1.5000    0.0000 C   0  0  0  0  0  0  0  0  0  0  0  0
    1.8481    2.7990    0.0000 F   0  0  0  0  0  0  0  0  0  0  0  0
    3.3481    0.2010    0.0000 F   0  0  0  0  0  0  0  0  0  0  0  0
    3.8971    2.2500    0.0000 C   0  0  0  0  0  0  0  0  0  0  0  0
    4.6471    0.9510    0.0000 F   0  0  0  0  0  0  0  0  0  0  0  0
    3.1471    3.5490    0.0000 F   0  0  0  0  0  0  0  0  0  0  0  0
    5.1962    3.0000    0.0000 C   0  0  0  0  0  0  0  0  0  0  0  0
    5.9462    1.7010    0.0000 F   0  0  0  0  0  0  0  0  0  0  0  0
    4.4462    4.2990    0.0000 F   0  0  0  0  0  0  0  0  0  0  0  0
    6.4952    3.7500    0.0000 C   0  0  0  0  0  0  0  0  0  0  0  0
    5.7452    5.0490    0.0000 F   0  0  0  0  0  0  0  0  0  0  0  0
    7.2452    2.4510    0.0000 F   0  0  0  0  0  0  0  0  0  0  0  0
    7.7942    4.5000    0.0000 C   0  0  0  0  0  0  0  0  0  0  0  0
    7.7942    6.0000    0.0000 F   0  0  0  0  0  0  0  0  0  0  0  0
    9.0933    3.7500    0.0000 F   0  0  0  0  0  0  0  0  0  0  0  0
  1  2  2  0
  2  3  1  0
  2  4  1  0
  4  5  1  0
  5  6  1  0
  6  7  1  0
  6  8  1  0
  6  9  1  0
  9 10  1  0
  9 11  1  0
  9 12  1  0
 12 13  1  0
 12 14  1  0
 12 15  1  0
 15 16  1  0
 15 17  1  0
 15 18  1  0
 18 19  1  0
 18 20  1  0
 18 21  1  0
 21 22  1  0
 21 23  1  0
M  END
$$$$

     RDKit          2D

 16 16  0  0  0  0  0  0  0  0999 V2000
    2.6491    0.9642    0.0000 F   0  0  0  0  0  0  0  0  0  0  0  0
    1.5000    0.0000    0.0000 C   0  0  0  0  0  0  0  0  0  0  0  0
    2.6491   -0.9642    0.0000 F   0  0  0  0  0  0  0  0  0  0  0  0
    0.7500   -1.2990    0.0000 C   0  0  0  0  0  0  0  0  0  0  0  0
    1.5000   -2.5981    0.0000 Cl  0  0  0  0  0  0  0  0  0  0  0  0
   -0.7500   -1.2990    0.0000 C   0  0  0  0  0  0  0  0  0  0  0  0
   -1.5000   -2.5981    0.0000 I   0  0  0  0  0  0  0  0  0  0  0  0
   -1.5000    0.0000    0.0000 C   0  0  0  0  0  0  0  0  0  0  0  0
   -2.6491   -0.9642    0.0000 F   0  0  0  0  0  0  0  0  0  0  0  0
   -2.6491    0.9642    0.0000 F   0  0  0  0  0  0  0  0  0  0  0  0
   -0.7500    1.2990    0.0000 C   0  0  0  0  0  0  0  0  0  0  0  0
   -2.1595    1.8121    0.0000 F   0  0  0  0  0  0  0  0  0  0  0  0
   -0.4895    2.7762    0.0000 F   0  0  0  0  0  0  0  0  0  0  0  0
    0.7500    1.2990    0.0000 C   0  0  0  0  0  0  0  0  0  0  0  0
    0.4895    2.7762    0.0000 F   0  0  0  0  0  0  0  0  0  0  0  0
    2.1595    1.8121    0.0000 F   0  0  0  0  0  0  0  0  0  0  0  0
  1  2  1  0
  2  3  1  0
  2  4  1  0
  4  5  1  0
  4  6  2  0
  6  7  1  0
  6  8  1  0
  8  9  1  0
  8 10  1  0
  8 11  1  0
 11 12  1  0
 11 13  1  0
 11 14  1  0
 14 15  1  0
 14 16  1  0
 14  2  1  0
M  END
$$$$

     RDKit          2D

 22 22  0  0  0  0  0  0  0  0999 V2000
    5.2500   -1.2990    0.0000 C   0  0  0  0  0  0  0  0  0  0  0  0
    3.7500   -1.2990    0.0000 C   0  0  0  0  0  0  0  0  0  0  0  0
    3.0000    0.0000    0.0000 N   0  0  0  0  0  0  0  0  0  0  0  0
    3.7500    1.2990    0.0000 C   0  0  0  0  0  0  0  0  0  0  0  0
    5.2500    1.2990    0.0000 C   0  0  0  0  0  0  0  0  0  0  0  0
    5.2500    2.7990    0.0000 F   0  0  0  0  0  0  0  0  0  0  0  0
    5.2500   -0.2010    0.0000 F   0  0  0  0  0  0  0  0  0  0  0  0
    6.7500    1.2990    0.0000 C   0  0  0  0  0  0  0  0  0  0  0  0
    6.7500   -0.2010    0.0000 F   0  0  0  0  0  0  0  0  0  0  0  0
    6.7500    2.7990    0.0000 F   0  0  0  0  0  0  0  0  0  0  0  0
    8.2500    1.2990    0.0000 C   0  0  0  0  0  0  0  0  0  0  0  0
    8.2500   -0.2010    0.0000 F   0  0  0  0  0  0  0  0  0  0  0  0
    8.2500    2.7990    0.0000 F   0  0  0  0  0  0  0  0  0  0  0  0
    9.7500    1.2990    0.0000 C   0  0  0  0  0  0  0  0  0  0  0  0
   10.5000    0.0000    0.0000 F   0  0  0  0  0  0  0  0  0  0  0  0
   10.5000    2.5981    0.0000 F   0  0  0  0  0  0  0  0  0  0  0  0
    1.5000    0.0000    0.0000 C   0  0  0  0  0  0  0  0  0  0  0  0
    0.7500   -1.2990    0.0000 C   0  0  0  0  0  0  0  0  0  0  0  0
   -0.7500   -1.2990    0.0000 C   0  0  0  0  0  0  0  0  0  0  0  0
   -1.5000    0.0000    0.0000 C   0  0  0  0  0  0  0  0  0  0  0  0
   -0.7500    1.2990    0.0000 C   0  0  0  0  0  0  0  0  0  0  0  0
    0.7500    1.2990    0.0000 C   0  0  0  0  0  0  0  0  0  0  0  0
  1  2  1  0
  2  3  1  0
  3  4  1  0
  4  5  1  0
  5  6  1  0
  5  7  1  0
  5  8  1  0
  8  9  1  0
  8 10  1  0
  8 11  1  0
 11 12  1  0
 11 13  1  0
 11 14  1  0
 14 15  1  0
 14 16  1  0
  3 17  1  0
 17 18  2  0
 18 19  1  0
 19 20  2  0
 20 21  1  0
 21 22  2  0
 22 17  1  0
M  END
$$$$

     RDKit          2D

 19 20  0  0  0  0  0  0  0  0999 V2000
   -0.0967    5.1517    0.0000 F   0  0  0  0  0  0  0  0  0  0  0  0
   -0.4086    3.6844    0.0000 C   0  0  0  0  0  0  0  0  0  0  0  0
   -1.8351    3.2209    0.0000 C   0  0  0  0  0  0  0  0  0  0  0  0
   -2.9499    4.2246    0.0000 F   0  0  0  0  0  0  0  0  0  0  0  0
   -2.1470    1.7537    0.0000 C   0  0  0  0  0  0  0  0  0  0  0  0
   -3.5736    1.2902    0.0000 F   0  0  0  0  0  0  0  0  0  0  0  0
   -1.0323    0.7500    0.0000 C   0  0  0  0  0  0  0  0  0  0  0  0
    0.3943    1.2135    0.0000 C   0  0  0  0  0  0  0  0  0  0  0  0
    0.7062    2.6807    0.0000 C   0  0  0  0  0  0  0  0  0  0  0  0
    2.1328    3.1443    0.0000 F   0  0  0  0  0  0  0  0  0  0  0  0
    1.2760    0.0000    0.0000 C   0  0  0  0  0  0  0  0  0  0  0  0
    2.3907    1.0037    0.0000 F   0  0  0  0  0  0  0  0  0  0  0  0
    2.3907   -1.0037    0.0000 F   0  0  0  0  0  0  0  0  0  0  0  0
    0.3943   -1.2135    0.0000 C   0  0  0  0  0  0  0  0  0  0  0  0
    1.6933   -1.9635    0.0000 F   0  0  0  0  0  0  0  0  0  0  0  0
   -0.2158   -2.5838    0.0000 F   0  0  0  0  0  0  0  0  0  0  0  0
   -1.0323   -0.7500    0.0000 C   0  0  0  0  0  0  0  0  0  0  0  0
   -1.3442   -2.2172    0.0000 F   0  0  0  0  0  0  0  0  0  0  0  0
   -2.5241   -0.5932    0.0000 Cl  0  0  0  0  0  0  0  0  0  0  0  0
  1  2  1  0
  2  3  2  0
  3  4  1  0
  3  5  1  0
  5  6  1  0
  5  7  2  0
  7  8  1  0
  8  9  2  0
  9 10  1  0
  8 11  1  0
 11 12  1  0
 11 13  1  0
 11 14  1  0
 14 15  1  0
 14 16  1  0
 14 17  1  0
 17 18  1  0
 17 19  1  0
  9  2  1  0
 17  7  1  0
M  END
$$$$

     RDKit          2D

 15 14  0  0  0  0  0  0  0  0999 V2000
   -1.5000    0.0000    0.0000 F   0  0  0  0  0  0  0  0  0  0  0  0
    0.0000    0.0000    0.0000 C   0  0  0  0  0  0  0  0  0  0  0  0
    0.0000    1.5000    0.0000 F   0  0  0  0  0  0  0  0  0  0  0  0
   -0.0000   -1.5000    0.0000 F   0  0  0  0  0  0  0  0  0  0  0  0
    1.5000    0.0000    0.0000 C   0  0  0  0  0  0  0  0  0  0  0  0
    1.5000    1.5000    0.0000 F   0  0  0  0  0  0  0  0  0  0  0  0
    1.5000   -1.5000    0.0000 F   0  0  0  0  0  0  0  0  0  0  0  0
    3.0000    0.0000    0.0000 C   0  0  0  0  0  0  0  0  0  0  0  0
    3.0000    1.5000    0.0000 F   0  0  0  0  0  0  0  0  0  0  0  0
    3.0000   -1.5000    0.0000 F   0  0  0  0  0  0  0  0  0  0  0  0
    4.5000    0.0000    0.0000 C   0  0  0  0  0  0  0  0  0  0  0  0
    6.0000    0.0000    0.0000 F   0  0  0  0  0  0  0  0  0  0  0  0
    4.5000   -1.5000    0.0000 F   0  0  0  0  0  0  0  0  0  0  0  0
    4.5000    1.5000    0.0000 Mg  0  0  0  0  0  2  0  0  0  0  0  0
    4.5000    3.0000    0.0000 Br  0  0  0  0  0  0  0  0  0  0  0  0
  1  2  1  0
  2  3  1  0
  2  4  1  0
  2  5  1  0
  5  6  1  0
  5  7  1  0
  5  8  1  0
  8  9  1  0
  8 10  1  0
  8 11  1  0
 11 12  1  0
 11 13  1  0
 11 14  1  0
 14 15  1  0
M  END
$$$$

     RDKit          2D

 21 20  0  0  0  0  0  0  0  0999 V2000
   -1.1979   -2.4028    0.0000 O   0  0  0  0  0  0  0  0  0  0  0  0
   -0.0000   -1.5000    0.0000 N   0  0  0  0  0  0  0  0  0  0  0  0
    0.0000    0.0000    0.0000 C   0  0  0  0  0  0  0  0  0  0  0  0
   -1.5000    0.0000    0.0000 C   0  0  0  0  0  0  0  0  0  0  0  0
   -3.0000    0.0000    0.0000 F   0  0  0  0  0  0  0  0  0  0  0  0
   -1.6828   -1.4888    0.0000 F   0  0  0  0  0  0  0  0  0  0  0  0
   -1.6080    0.8791    0.0000 F   0  0  0  0  0  0  0  0  0  0  0  0
    0.0000    1.5000    0.0000 C   0  0  0  0  0  0  0  0  0  0  0  0
    0.0000    3.0000    0.0000 F   0  0  0  0  0  0  0  0  0  0  0  0
   -0.8791    1.6080    0.0000 F   0  0  0  0  0  0  0  0  0  0  0  0
    0.8791    1.6080    0.0000 F   0  0  0  0  0  0  0  0  0  0  0  0
    1.5000    0.0000    0.0000 C   0  0  0  0  0  0  0  0  0  0  0  0
    1.5000   -1.5000    0.0000 F   0  0  0  0  0  0  0  0  0  0  0  0
    1.6080    0.8791    0.0000 F   0  0  0  0  0  0  0  0  0  0  0  0
    3.0000    0.0000    0.0000 C   0  0  0  0  0  0  0  0  0  0  0  0
    3.0000    1.5000    0.0000 F   0  0  0  0  0  0  0  0  0  0  0  0
    3.0000   -1.5000    0.0000 F   0  0  0  0  0  0  0  0  0  0  0  0
    4.5000    0.0000    0.0000 C   0  0  0  0  0  0  0  0  0  0  0  0
    6.0000    0.0000    0.0000 F   0  0  0  0  0  0  0  0  0  0  0  0
    4.5000   -1.5000    0.0000 F   0  0  0  0  0  0  0  0  0  0  0  0
    4.5000    1.5000    0.0000 F   0  0  0  0  0  0  0  0  0  0  0  0
  1  2  2  0
  2  3  1  0
  3  4  1  0
  4  5  1  0
  4  6  1  0
  4  7  1  0
  3  8  1  0
  8  9  1  0
  8 10  1  0
  8 11  1  0
  3 12  1  0
 12 13  1  0
 12 14  1  0
 12 15  1  0
 15 16  1  0
 15 17  1  0
 15 18  1  0
 18 19  1  0
 18 20  1  0
 18 21  1  0
M  END
$$$$

     RDKit          2D

  8  7  0  0  0  0  0  0  0  0999 V2000
    0.0000    0.0000    0.0000 C   0  0  0  0  0  0  0  0  0  0  0  0
    1.2990    0.7500    0.0000 C   0  0  0  0  0  0  0  0  0  0  0  0
    2.0490   -0.5490    0.0000 F   0  0  0  0  0  0  0  0  0  0  0  0
    0.5490    2.0490    0.0000 F   0  0  0  0  0  0  0  0  0  0  0  0
    2.5981    1.5000    0.0000 C   0  0  0  0  0  0  0  0  0  0  0  0
    3.8971    2.2500    0.0000 O   0  0  0  0  0  0  0  0  0  0  0  0
    1.8481    2.7990    0.0000 F   0  0  0  0  0  0  0  0  0  0  0  0
    3.3481    0.2010    0.0000 F   0  0  0  0  0  0  0  0  0  0  0  0
  1  2  1  0
  2  3  1  0
  2  4  1  0
  2  5  1  0
  5  6  1  0
  5  7  1  0
  5  8  1  0
M  END
$$$$

     RDKit          2D

 19 18  0  0  0  0  0  0  0  0999 V2000
    0.0000    0.0000    0.0000 C   0  0  0  0  0  0  0  0  0  0  0  0
    1.2990    0.7500    0.0000 O   0  0  0  0  0  0  0  0  0  0  0  0
    2.5981   -0.0000    0.0000 C   0  0  0  0  0  0  0  0  0  0  0  0
    2.5981   -1.5000    0.0000 O   0  0  0  0  0  0  0  0  0  0  0  0
    3.8971    0.7500    0.0000 C   0  0  0  0  0  0  0  0  0  0  0  0
    3.8971    2.2500    0.0000 O   0  0  0  0  0  0  0  0  0  0  0  0
    5.1962   -0.0000    0.0000 C   0  0  0  0  0  0  0  0  0  0  0  0
    5.9462    1.2990    0.0000 F   0  0  0  0  0  0  0  0  0  0  0  0
    4.4462   -1.2990    0.0000 F   0  0  0  0  0  0  0  0  0  0  0  0
    6.4952   -0.7500    0.0000 C   0  0  0  0  0  0  0  0  0  0  0  0
    5.7452   -2.0490    0.0000 F   0  0  0  0  0  0  0  0  0  0  0  0
    7.2452    0.5490    0.0000 F   0  0  0  0  0  0  0  0  0  0  0  0
    7.7942   -1.5000    0.0000 C   0  0  0  0  0  0  0  0  0  0  0  0
    8.5442   -0.2010    0.0000 F   0  0  0  0  0  0  0  0  0  0  0  0
    7.0442   -2.7990    0.0000 F   0  0  0  0  0  0  0  0  0  0  0  0
    9.0933   -2.2500    0.0000 C   0  0  0  0  0  0  0  0  0  0  0  0
   10.3923   -3.0000    0.0000 F   0  0  0  0  0  0  0  0  0  0  0  0
    8.3433   -3.5490    0.0000 F   0  0  0  0  0  0  0  0  0  0  0  0
    9.8433   -0.9510    0.0000 F   0  0  0  0  0  0  0  0  0  0  0  0
  1  2  1  0
  2  3  1  0
  3  4  2  0
  3  5  1  0
  5  6  2  0
  5  7  1  0
  7  8  1  0
  7  9  1  0
  7 10  1  0
 10 11  1  0
 10 12  1  0
 10 13  1  0
 13 14  1  0
 13 15  1  0
 13 16  1  0
 16 17  1  0
 16 18  1  0
 16 19  1  0
M  END
$$$$

     RDKit          2D

 17 17  0  0  0  0  0  0  0  0999 V2000
    4.5000    0.0000    0.0000 N   0  0  0  0  0  0  0  0  0  0  0  0
    3.0000    0.0000    0.0000 C   0  0  0  0  0  0  0  0  0  0  0  0
    1.5000    0.0000    0.0000 C   0  0  0  0  0  0  0  0  0  0  0  0
    0.7500   -1.2990    0.0000 C   0  0  0  0  0  0  0  0  0  0  0  0
    1.5000   -2.5981    0.0000 Cl  0  0  0  0  0  0  0  0  0  0  0  0
   -0.7500   -1.2990    0.0000 C   0  0  0  0  0  0  0  0  0  0  0  0
   -0.4895   -2.7762    0.0000 F   0  0  0  0  0  0  0  0  0  0  0  0
   -2.1595   -1.8121    0.0000 F   0  0  0  0  0  0  0  0  0  0  0  0
   -1.5000    0.0000    0.0000 C   0  0  0  0  0  0  0  0  0  0  0  0
   -2.6491   -0.9642    0.0000 F   0  0  0  0  0  0  0  0  0  0  0  0
   -2.6491    0.9642    0.0000 F   0  0  0  0  0  0  0  0  0  0  0  0
   -0.7500    1.2990    0.0000 C   0  0  0  0  0  0  0  0  0  0  0  0
   -2.1595    1.8121    0.0000 F   0  0  0  0  0  0  0  0  0  0  0  0
   -0.4895    2.7762    0.0000 F   0  0  0  0  0  0  0  0  0  0  0  0
    0.7500    1.2990    0.0000 C   0  0  0  0  0  0  0  0  0  0  0  0
    0.4895    2.7762    0.0000 F   0  0  0  0  0  0  0  0  0  0  0  0
    2.1595    1.8121    0.0000 F   0  0  0  0  0  0  0  0  0  0  0  0
  1  2  3  0
  2  3  1  0
  3  4  2  0
  4  5  1  0
  4  6  1  0
  6  7  1  0
  6  8  1  0
  6  9  1  0
  9 10  1  0
  9 11  1  0
  9 12  1  0
 12 13  1  0
 12 14  1  0
 12 15  1  0
 15 16  1  0
 15 17  1  0
 15  3  1  0
M  END
$$$$

     RDKit          2D

 23 22  0  0  0  0  0  0  0  0999 V2000
   -0.0000   -3.0000    0.0000 O   0  0  0  0  0  0  0  0  0  0  0  0
   -0.0000   -1.5000    0.0000 S   0  0  0  0  0  0  0  0  0  0  0  0
   -1.5000   -1.5000    0.0000 O   0  0  0  0  0  0  0  0  0  0  0  0
    1.5000   -1.5000    0.0000 F   0  0  0  0  0  0  0  0  0  0  0  0
    0.0000    0.0000    0.0000 C   0  0  0  0  0  0  0  0  0  0  0  0
   -1.2990    0.7500    0.0000 F   0  0  0  0  0  0  0  0  0  0  0  0
    1.2990    0.7500    0.0000 C   0  0  0  0  0  0  0  0  0  0  0  0
    0.5490    2.0490    0.0000 F   0  0  0  0  0  0  0  0  0  0  0  0
    2.0490   -0.5490    0.0000 F   0  0  0  0  0  0  0  0  0  0  0  0
    2.5981    1.5000    0.0000 C   0  0  0  0  0  0  0  0  0  0  0  0
    3.3481    0.2010    0.0000 F   0  0  0  0  0  0  0  0  0  0  0  0
    1.8481    2.7990    0.0000 F   0  0  0  0  0  0  0  0  0  0  0  0
    3.8971    2.2500    0.0000 C   0  0  0  0  0  0  0  0  0  0  0  0
    3.1471    3.5490    0.0000 F   0  0  0  0  0  0  0  0  0  0  0  0
    4.6471    0.9510    0.0000 F   0  0  0  0  0  0  0  0  0  0  0  0
    5.1962    3.0000    0.0000 C   0  0  0  0  0  0  0  0  0  0  0  0
    5.9462    1.7010    0.0000 F   0  0  0  0  0  0  0  0  0  0  0  0
    4.4462    4.2990    0.0000 F   0  0  0  0  0  0  0  0  0  0  0  0
    6.4952    3.7500    0.0000 C   0  0  0  0  0  0  0  0  0  0  0  0
    6.4952    5.2500    0.0000 F   0  0  0  0  0  0  0  0  0  0  0  0
    7.7942    3.0000    0.0000 C   0  0  0  0  0  0  0  0  0  0  0  0
    9.0933    3.7500    0.0000 F   0  0  0  0  0  0  0  0  0  0  0  0
    7.7942    1.5000    0.0000 F   0  0  0  0  0  0  0  0  0  0  0  0
  1  2  2  0
  2  3  2  0
  2  4  1  0
  2  5  1  0
  5  6  1  0
  5  7  1  0
  7  8  1  0
  7  9  1  0
  7 10  1  0
 10 11  1  0
 10 12  1  0
 10 13  1  0
 13 14  1  0
 13 15  1  0
 13 16  1  0
 16 17  1  0
 16 18  1  0
 16 19  1  0
 19 20  1  0
 19 21  2  0
 21 22  1  0
 21 23  1  0
M  END
$$$$

     RDKit          2D

 30 29  0  0  0  0  0  0  0  0999 V2000
    1.2990    2.2500    0.0000 O   0  0  0  0  0  0  0  0  0  0  0  0
    1.2990    0.7500    0.0000 C   0  0  0  0  0  0  0  0  0  0  0  0
    2.5981   -0.0000    0.0000 O   0  0  0  0  0  0  0  0  0  0  0  0
    0.0000    0.0000    0.0000 C   0  0  0  0  0  0  0  0  0  0  0  0
   -1.2990    0.7500    0.0000 S   0  0  0  0  0  0  0  0  0  0  0  0
   -2.5981    0.0000    0.0000 C   0  0  0  0  0  0  0  0  0  0  0  0
   -1.8481   -1.2990    0.0000 F   0  0  0  0  0  0  0  0  0  0  0  0
   -3.8971   -0.7500    0.0000 F   0  0  0  0  0  0  0  0  0  0  0  0
   -3.3481    1.2990    0.0000 C   0  0  0  0  0  0  0  0  0  0  0  0
   -2.0490    2.0490    0.0000 F   0  0  0  0  0  0  0  0  0  0  0  0
   -4.6471    0.5490    0.0000 F   0  0  0  0  0  0  0  0  0  0  0  0
   -4.0981    2.5981    0.0000 C   0  0  0  0  0  0  0  0  0  0  0  0
   -5.3971    1.8481    0.0000 F   0  0  0  0  0  0  0  0  0  0  0  0
   -2.7990    3.3481    0.0000 F   0  0  0  0  0  0  0  0  0  0  0  0
   -4.8481    3.8971    0.0000 C   0  0  0  0  0  0  0  0  0  0  0  0
   -3.5490    4.6471    0.0000 F   0  0  0  0  0  0  0  0  0  0  0  0
   -6.1471    3.1471    0.0000 F   0  0  0  0  0  0  0  0  0  0  0  0
   -5.5981    5.1962    0.0000 C   0  0  0  0  0  0  0  0  0  0  0  0
   -4.2990    5.9462    0.0000 F   0  0  0  0  0  0  0  0  0  0  0  0
   -6.8971    4.4462    0.0000 F   0  0  0  0  0  0  0  0  0  0  0  0
   -6.3481    6.4952    0.0000 C   0  0  0  0  0  0  0  0  0  0  0  0
   -7.6471    5.7452    0.0000 F   0  0  0  0  0  0  0  0  0  0  0  0
   -5.0490    7.2452    0.0000 F   0  0  0  0  0  0  0  0  0  0  0  0
   -7.0981    7.7942    0.0000 C   0  0  0  0  0  0  0  0  0  0  0  0
   -5.7990    8.5442    0.0000 F   0  0  0  0  0  0  0  0  0  0  0  0
   -8.3971    7.0442    0.0000 F   0  0  0  0  0  0  0  0  0  0  0  0
   -7.8481    9.0933    0.0000 C   0  0  0  0  0  0  0  0  0  0  0  0
   -8.5981   10.3923    0.0000 F   0  0  0  0  0  0  0  0  0  0  0  0
   -9.1471    8.3433    0.0000 F   0  0  0  0  0  0  0  0  0  0  0  0
   -6.5490    9.8433    0.0000 F   0  0  0  0  0  0  0  0  0  0  0  0
  1  2  2  0
  2  3  1  0
  2  4  1  0
  4  5  1  0
  5  6  1  0
  6  7  1  0
  6  8  1  0
  6  9  1  0
  9 10  1  0
  9 11  1  0
  9 12  1  0
 12 13  1  0
 12 14  1  0
 12 15  1  0
 15 16  1  0
 15 17  1  0
 15 18  1  0
 18 19  1  0
 18 20  1  0
 18 21  1  0
 21 22  1  0
 21 23  1  0
 21 24  1  0
 24 25  1  0
 24 26  1  0
 24 27  1  0
 27 28  1  0
 27 29  1  0
 27 30  1  0
M  END
$$$$

     RDKit          2D

 26 26  0  0  0  0  0  0  0  0999 V2000
    3.0000    0.0000    0.0000 O   0  0  0  0  0  0  0  0  0  0  0  0
    1.5000    0.0000    0.0000 C   0  0  0  0  0  0  0  0  0  0  0  0
    0.7500   -1.2990    0.0000 C   0  0  0  0  0  0  0  0  0  0  0  0
   -0.7500   -1.2990    0.0000 C   0  0  0  0  0  0  0  0  0  0  0  0
   -1.5000    0.0000    0.0000 C   0  0  0  0  0  0  0  0  0  0  0  0
   -0.7500    1.2990    0.0000 C   0  0  0  0  0  0  0  0  0  0  0  0
    0.7500    1.2990    0.0000 C   0  0  0  0  0  0  0  0  0  0  0  0
    1.5000    2.5981    0.0000 C   0  0  0  0  0  0  0  0  0  0  0  0
    2.7990    1.8481    0.0000 F   0  0  0  0  0  0  0  0  0  0  0  0
    0.2010    3.3481    0.0000 F   0  0  0  0  0  0  0  0  0  0  0  0
    2.2500    3.8971    0.0000 C   0  0  0  0  0  0  0  0  0  0  0  0
    0.9510    4.6471    0.0000 F   0  0  0  0  0  0  0  0  0  0  0  0
    3.5490    3.1471    0.0000 F   0  0  0  0  0  0  0  0  0  0  0  0
    3.0000    5.1962    0.0000 C   0  0  0  0  0  0  0  0  0  0  0  0
    4.2990    4.4462    0.0000 F   0  0  0  0  0  0  0  0  0  0  0  0
    1.7010    5.9462    0.0000 F   0  0  0  0  0  0  0  0  0  0  0  0
    3.7500    6.4952    0.0000 C   0  0  0  0  0  0  0  0  0  0  0  0
    2.4510    7.2452    0.0000 F   0  0  0  0  0  0  0  0  0  0  0  0
    5.0490    5.7452    0.0000 F   0  0  0  0  0  0  0  0  0  0  0  0
    4.5000    7.7942    0.0000 C   0  0  0  0  0  0  0  0  0  0  0  0
    5.7990    7.0442    0.0000 F   0  0  0  0  0  0  0  0  0  0  0  0
    3.2010    8.5442    0.0000 F   0  0  0  0  0  0  0  0  0  0  0  0
    5.2500    9.0933    0.0000 C   0  0  0  0  0  0  0  0  0  0  0  0
    6.0000   10.3923    0.0000 F   0  0  0  0  0  0  0  0  0  0  0  0
    3.9510    9.8433    0.0000 F   0  0  0  0  0  0  0  0  0  0  0  0
    6.5490    8.3433    0.0000 F   0  0  0  0  0  0  0  0  0  0  0  0
  1  2  2  0
  2  3  1  0
  3  4  1  0
  4  5  1  0
  5  6  1  0
  6  7  1  0
  7  8  1  0
  8  9  1  0
  8 10  1  0
  8 11  1  0
 11 12  1  0
 11 13  1  0
 11 14  1  0
 14 15  1  0
 14 16  1  0
 14 17  1  0
 17 18  1  0
 17 19  1  0
 17 20  1  0
 20 21  1  0
 20 22  1  0
 20 23  1  0
 23 24  1  0
 23 25  1  0
 23 26  1  0
  7  2  1  0
M  END
$$$$

     RDKit          2D

 29 28  0  0  0  0  0  0  0  0999 V2000
    0.0000    0.0000    0.0000 C   0  0  0  0  0  0  0  0  0  0  0  0
    1.2990    0.7500    0.0000 C   0  0  0  0  0  0  0  0  0  0  0  0
    1.2990    2.2500    0.0000 O   0  0  0  0  0  0  0  0  0  0  0  0
    2.5981   -0.0000    0.0000 C   0  0  0  0  0  0  0  0  0  0  0  0
    3.8971    0.7500    0.0000 C   0  0  0  0  0  0  0  0  0  0  0  0
    4.6471   -0.5490    0.0000 F   0  0  0  0  0  0  0  0  0  0  0  0
    3.1471    2.0490    0.0000 F   0  0  0  0  0  0  0  0  0  0  0  0
    5.1962    1.5000    0.0000 C   0  0  0  0  0  0  0  0  0  0  0  0
    4.4462    2.7990    0.0000 F   0  0  0  0  0  0  0  0  0  0  0  0
    5.9462    0.2010    0.0000 F   0  0  0  0  0  0  0  0  0  0  0  0
    6.4952    2.2500    0.0000 C   0  0  0  0  0  0  0  0  0  0  0  0
    7.2452    0.9510    0.0000 F   0  0  0  0  0  0  0  0  0  0  0  0
    5.7452    3.5490    0.0000 F   0  0  0  0  0  0  0  0  0  0  0  0
    7.7942    3.0000    0.0000 C   0  0  0  0  0  0  0  0  0  0  0  0
    7.0442    4.2990    0.0000 F   0  0  0  0  0  0  0  0  0  0  0  0
    8.5442    1.7010    0.0000 F   0  0  0  0  0  0  0  0  0  0  0  0
    9.0933    3.7500    0.0000 C   0  0  0  0  0  0  0  0  0  0  0  0
    9.8433    2.4510    0.0000 F   0  0  0  0  0  0  0  0  0  0  0  0
    8.3433    5.0490    0.0000 F   0  0  0  0  0  0  0  0  0  0  0  0
   10.3923    4.5000    0.0000 C   0  0  0  0  0  0  0  0  0  0  0  0
    9.6423    5.7990    0.0000 F   0  0  0  0  0  0  0  0  0  0  0  0
   11.1423    3.2010    0.0000 F   0  0  0  0  0  0  0  0  0  0  0  0
   11.6913    5.2500    0.0000 C   0  0  0  0  0  0  0  0  0  0  0  0
   12.4413    3.9510    0.0000 F   0  0  0  0  0  0  0  0  0  0  0  0
   10.9413    6.5490    0.0000 F   0  0  0  0  0  0  0  0  0  0  0  0
   12.9904    6.0000    0.0000 C   0  0  0  0  0  0  0  0  0  0  0  0
   14.2894    6.7500    0.0000 F   0  0  0  0  0  0  0  0  0  0  0  0
   12.2404    7.2990    0.0000 F   0  0  0  0  0  0  0  0  0  0  0  0
   13.7404    4.7010    0.0000 F   0  0  0  0  0  0  0  0  0  0  0  0
  1  2  1  0
  2  3  1  0
  2  4  1  0
  4  5  1  0
  5  6  1  0
  5  7  1  0
  5  8  1  0
  8  9  1  0
  8 10  1  0
  8 11  1  0
 11 12  1  0
 11 13  1  0
 11 14  1  0
 14 15  1  0
 14 16  1  0
 14 17  1  0
 17 18  1  0
 17 19  1  0
 17 20  1  0
 20 21  1  0
 20 22  1  0
 20 23  1  0
 23 24  1  0
 23 25  1  0
 23 26  1  0
 26 27  1  0
 26 28  1  0
 26 29  1  0
M  END
$$$$

     RDKit          2D

 10  9  0  0  0  0  0  0  0  0999 V2000
    0.0000    0.0000    0.0000 C   0  0  0  0  0  0  0  0  0  0  0  0
    1.2990    0.7500    0.0000 C   0  0  0  0  0  0  0  0  0  0  0  0
    1.2990    2.2500    0.0000 F   0  0  0  0  0  0  0  0  0  0  0  0
    2.5981   -0.0000    0.0000 C   0  0  0  0  0  0  0  0  0  0  0  0
    3.3481    1.2990    0.0000 F   0  0  0  0  0  0  0  0  0  0  0  0
    1.8481   -1.2990    0.0000 F   0  0  0  0  0  0  0  0  0  0  0  0
    3.8971   -0.7500    0.0000 C   0  0  0  0  0  0  0  0  0  0  0  0
    5.1962   -1.5000    0.0000 F   0  0  0  0  0  0  0  0  0  0  0  0
    3.1471   -2.0490    0.0000 F   0  0  0  0  0  0  0  0  0  0  0  0
    4.6471    0.5490    0.0000 F   0  0  0  0  0  0  0  0  0  0  0  0
  1  2  2  0
  2  3  1  0
  2  4  1  0
  4  5  1  0
  4  6  1  0
  4  7  1  0
  7  8  1  0
  7  9  1  0
  7 10  1  0
M  END
$$$$

     RDKit          2D

 20 21  0  0  0  0  0  0  0  0999 V2000
    3.7981    1.9284    0.0000 F   0  0  0  0  0  0  0  0  0  0  0  0
    2.6491    0.9642    0.0000 C   0  0  0  0  0  0  0  0  0  0  0  0
    1.6849    2.1132    0.0000 F   0  0  0  0  0  0  0  0  0  0  0  0
    3.2321    0.4205    0.0000 F   0  0  0  0  0  0  0  0  0  0  0  0
    1.5000    0.0000    0.0000 C   0  0  0  0  0  0  0  0  0  0  0  0
    2.6491   -0.9642    0.0000 C   0  0  0  0  0  0  0  0  0  0  0  0
    3.7981   -1.9284    0.0000 F   0  0  0  0  0  0  0  0  0  0  0  0
    3.2321   -0.4205    0.0000 F   0  0  0  0  0  0  0  0  0  0  0  0
    1.6849   -2.1132    0.0000 F   0  0  0  0  0  0  0  0  0  0  0  0
    0.7500   -1.2990    0.0000 C   0  0  0  0  0  0  0  0  0  0  0  0
   -0.7500   -1.2990    0.0000 C   0  0  0  0  0  0  0  0  0  0  0  0
   -1.5000    0.0000    0.0000 S   0  0  0  0  0  0  0  0  0  0  0  0
   -0.7500    1.2990    0.0000 C   0  0  0  0  0  0  0  0  0  0  0  0
   -1.5000    2.5981    0.0000 C   0  0  0  0  0  0  0  0  0  0  0  0
   -0.7500    3.8971    0.0000 C   0  0  0  0  0  0  0  0  0  0  0  0
   -1.5000    5.1962    0.0000 C   0  0  0  0  0  0  0  0  0  0  0  0
   -3.0000    5.1962    0.0000 C   0  0  0  0  0  0  0  0  0  0  0  0
   -3.7500    3.8971    0.0000 C   0  0  0  0  0  0  0  0  0  0  0  0
   -3.0000    2.5981    0.0000 C   0  0  0  0  0  0  0  0  0  0  0  0
    0.7500    1.2990    0.0000 N   0  0  0  0  0  0  0  0  0  0  0  0
  1  2  1  0
  2  3  1  0
  2  4  1  0
  2  5  1  0
  5  6  1  0
  6  7  1  0
  6  8  1  0
  6  9  1  0
  5 10  1  0
 10 11  2  0
 11 12  1  0
 12 13  1  0
 13 14  1  0
 14 15  2  0
 15 16  1  0
 16 17  2  0
 17 18  1  0
 18 19  2  0
 13 20  2  0
 20  5  1  0
 19 14  1  0
M  END
$$$$

     RDKit          2D

 17 17  0  0  0  0  0  0  0  0999 V2000
   -1.5000    2.5981    0.0000 O   0  0  0  0  0  0  0  0  0  0  0  0
   -0.7500    3.8971    0.0000 C   0  0  0  0  0  0  0  0  0  0  0  0
   -1.5000    5.1962    0.0000 C   0  0  0  0  0  0  0  0  0  0  0  0
   -0.7500    6.4952    0.0000 C   0  0  0  0  0  0  0  0  0  0  0  0
    0.7500    6.4952    0.0000 C   0  0  0  0  0  0  0  0  0  0  0  0
    1.5000    5.1962    0.0000 C   0  0  0  0  0  0  0  0  0  0  0  0
    0.7500    3.8971    0.0000 C   0  0  0  0  0  0  0  0  0  0  0  0
    1.5000    2.5981    0.0000 N   0  0  0  0  0  0  0  0  0  0  0  0
    3.0000    2.5981    0.0000 C   0  0  0  0  0  0  0  0  0  0  0  0
    3.7500    3.8971    0.0000 C   0  0  0  0  0  0  0  0  0  0  0  0
    4.5000    5.1962    0.0000 F   0  0  0  0  0  0  0  0  0  0  0  0
    5.0490    3.1471    0.0000 F   0  0  0  0  0  0  0  0  0  0  0  0
    2.4510    4.6471    0.0000 F   0  0  0  0  0  0  0  0  0  0  0  0
    3.7500    1.2990    0.0000 C   0  0  0  0  0  0  0  0  0  0  0  0
    4.5000   -0.0000    0.0000 F   0  0  0  0  0  0  0  0  0  0  0  0
    2.4510    0.5490    0.0000 F   0  0  0  0  0  0  0  0  0  0  0  0
    5.0490    2.0490    0.0000 F   0  0  0  0  0  0  0  0  0  0  0  0
  1  2  1  0
  2  3  2  0
  3  4  1  0
  4  5  2  0
  5  6  1  0
  6  7  2  0
  7  8  1  0
  8  9  1  0
  9 10  1  0
 10 11  1  0
 10 12  1  0
 10 13  1  0
  9 14  1  0
 14 15  1  0
 14 16  1  0
 14 17  1  0
  7  2  1  0
M  END
$$$$

     RDKit          2D

 23 24  0  0  0  0  0  0  0  0999 V2000
    2.2500   -6.4952    0.0000 F   0  0  0  0  0  0  0  0  0  0  0  0
    3.0000   -5.1962    0.0000 C   0  0  0  0  0  0  0  0  0  0  0  0
    2.2337   -4.9765    0.0000 F   0  0  0  0  0  0  0  0  0  0  0  0
    4.2990   -5.9462    0.0000 F   0  0  0  0  0  0  0  0  0  0  0  0
    3.7500   -3.8971    0.0000 C   0  0  0  0  0  0  0  0  0  0  0  0
    3.0000   -2.5981    0.0000 O   0  0  0  0  0  0  0  0  0  0  0  0
    1.5000   -2.5981    0.0000 P   0  0  0  0  0  0  0  0  0  0  0  0
    0.7500   -1.2990    0.0000 C   0  0  0  0  0  0  0  0  0  0  0  0
    1.5000    0.0000    0.0000 C   0  0  0  0  0  0  0  0  0  0  0  0
    0.7500    1.2990    0.0000 C   0  0  0  0  0  0  0  0  0  0  0  0
   -0.7500    1.2990    0.0000 C   0  0  0  0  0  0  0  0  0  0  0  0
   -1.5000    0.0000    0.0000 C   0  0  0  0  0  0  0  0  0  0  0  0
   -0.7500   -1.2990    0.0000 C   0  0  0  0  0  0  0  0  0  0  0  0
    0.7500   -3.8971    0.0000 C   0  0  0  0  0  0  0  0  0  0  0  0
    1.5000   -5.1962    0.0000 C   0  0  0  0  0  0  0  0  0  0  0  0
    0.7500   -6.4952    0.0000 C   0  0  0  0  0  0  0  0  0  0  0  0
   -0.7500   -6.4952    0.0000 C   0  0  0  0  0  0  0  0  0  0  0  0
   -1.5000   -5.1962    0.0000 C   0  0  0  0  0  0  0  0  0  0  0  0
   -0.7500   -3.8971    0.0000 C   0  0  0  0  0  0  0  0  0  0  0  0
    5.2500   -3.8971    0.0000 C   0  0  0  0  0  0  0  0  0  0  0  0
    6.7500   -3.8971    0.0000 F   0  0  0  0  0  0  0  0  0  0  0  0
    5.2500   -5.3971    0.0000 F   0  0  0  0  0  0  0  0  0  0  0  0
    5.2500   -2.3971    0.0000 F   0  0  0  0  0  0  0  0  0  0  0  0
  1  2  1  0
  2  3  1  0
  2  4  1  0
  2  5  1  0
  5  6  1  0
  6  7  1  0
  7  8  1  0
  8  9  2  0
  9 10  1  0
 10 11  2  0
 11 12  1  0
 12 13  2  0
  7 14  1  0
 14 15  2  0
 15 16  1  0
 16 17  2  0
 17 18  1  0
 18 19  2  0
  5 20  1  0
 20 21  1  0
 20 22  1  0
 20 23  1  0
 13  8  1  0
 19 14  1  0
M  END
$$$$

     RDKit          2D

 20 20  0  0  0  0  0  0  0  0999 V2000
    3.7500    1.2990    0.0000 O   0  0  0  0  0  0  0  0  0  0  0  0
    3.0000    0.0000    0.0000 C   0  0  0  0  0  0  0  0  0  0  0  0
    3.7500   -1.2990    0.0000 C   0  0  0  0  0  0  0  0  0  0  0  0
    4.5000   -2.5981    0.0000 C   0  0  0  0  0  0  0  0  0  0  0  0
    5.2500   -3.8971    0.0000 C   0  0  0  0  0  0  0  0  0  0  0  0
    6.5490   -3.1471    0.0000 F   0  0  0  0  0  0  0  0  0  0  0  0
    3.9510   -4.6471    0.0000 F   0  0  0  0  0  0  0  0  0  0  0  0
    6.0000   -5.1962    0.0000 C   0  0  0  0  0  0  0  0  0  0  0  0
    4.7010   -5.9462    0.0000 F   0  0  0  0  0  0  0  0  0  0  0  0
    7.2990   -4.4462    0.0000 F   0  0  0  0  0  0  0  0  0  0  0  0
    6.7500   -6.4952    0.0000 C   0  0  0  0  0  0  0  0  0  0  0  0
    7.5000   -7.7942    0.0000 F   0  0  0  0  0  0  0  0  0  0  0  0
    8.0490   -5.7452    0.0000 F   0  0  0  0  0  0  0  0  0  0  0  0
    5.4510   -7.2452    0.0000 F   0  0  0  0  0  0  0  0  0  0  0  0
    1.5000    0.0000    0.0000 C   0  0  0  0  0  0  0  0  0  0  0  0
    0.7500   -1.2990    0.0000 C   0  0  0  0  0  0  0  0  0  0  0  0
   -0.7500   -1.2990    0.0000 C   0  0  0  0  0  0  0  0  0  0  0  0
   -1.5000    0.0000    0.0000 C   0  0  0  0  0  0  0  0  0  0  0  0
   -0.7500    1.2990    0.0000 C   0  0  0  0  0  0  0  0  0  0  0  0
    0.7500    1.2990    0.0000 C   0  0  0  0  0  0  0  0  0  0  0  0
  1  2  2  0
  2  3  1  0
  3  4  3  0
  4  5  1  0
  5  6  1  0
  5  7  1  0
  5  8  1  0
  8  9  1  0
  8 10  1  0
  8 11  1  0
 11 12  1  0
 11 13  1  0
 11 14  1  0
  2 15  1  0
 15 16  2  0
 16 17  1  0
 17 18  2  0
 18 19  1  0
 19 20  2  0
 20 15  1  0
M  END
$$$$

     RDKit          2D

 22 22  0  0  0  0  0  0  0  0999 V2000
    3.7500   -1.2990    0.0000 C   0  0  0  0  0  0  0  0  0  0  0  0
    3.0000    0.0000    0.0000 O   0  0  0  0  0  0  0  0  0  0  0  0
    1.5000    0.0000    0.0000 C   0  0  0  0  0  0  0  0  0  0  0  0
    0.7500   -1.2990    0.0000 C   0  0  0  0  0  0  0  0  0  0  0  0
   -0.7500   -1.2990    0.0000 C   0  0  0  0  0  0  0  0  0  0  0  0
   -1.5000    0.0000    0.0000 C   0  0  0  0  0  0  0  0  0  0  0  0
   -3.0000    0.0000    0.0000 C   0  0  0  0  0  0  0  0  0  0  0  0
   -4.5000    0.0000    0.0000 C   0  0  0  0  0  0  0  0  0  0  0  0
   -6.0000    0.0000    0.0000 C   0  0  0  0  0  0  0  0  0  0  0  0
   -6.7500   -1.2990    0.0000 O   0  0  0  0  0  0  0  0  0  0  0  0
   -6.7500    1.2990    0.0000 C   0  0  0  0  0  0  0  0  0  0  0  0
   -8.0490    0.5490    0.0000 F   0  0  0  0  0  0  0  0  0  0  0  0
   -5.4510    2.0490    0.0000 F   0  0  0  0  0  0  0  0  0  0  0  0
   -7.5000    2.5981    0.0000 C   0  0  0  0  0  0  0  0  0  0  0  0
   -6.2010    3.3481    0.0000 F   0  0  0  0  0  0  0  0  0  0  0  0
   -8.7990    1.8481    0.0000 F   0  0  0  0  0  0  0  0  0  0  0  0
   -8.2500    3.8971    0.0000 C   0  0  0  0  0  0  0  0  0  0  0  0
   -9.0000    5.1962    0.0000 F   0  0  0  0  0  0  0  0  0  0  0  0
   -9.5490    3.1471    0.0000 F   0  0  0  0  0  0  0  0  0  0  0  0
   -6.9510    4.6471    0.0000 F   0  0  0  0  0  0  0  0  0  0  0  0
   -0.7500    1.2990    0.0000 C   0  0  0  0  0  0  0  0  0  0  0  0
    0.7500    1.2990    0.0000 C   0  0  0  0  0  0  0  0  0  0  0  0
  1  2  1  0
  2  3  1  0
  3  4  2  0
  4  5  1  0
  5  6  2  0
  6  7  1  0
  7  8  3  0
  8  9  1  0
  9 10  2  0
  9 11  1  0
 11 12  1  0
 11 13  1  0
 11 14  1  0
 14 15  1  0
 14 16  1  0
 14 17  1  0
 17 18  1  0
 17 19  1  0
 17 20  1  0
  6 21  1  0
 21 22  2  0
 22  3  1  0
M  END
$$$$

     RDKit          2D

 11 10  0  0  0  0  0  0  0  0999 V2000
    0.0000    0.0000    0.0000 C   0  0  0  0  0  0  0  0  0  0  0  0
    1.2990    0.7500    0.0000 C   0  0  0  0  0  0  0  0  0  0  0  0
    1.2990    2.2500    0.0000 O   0  0  0  0  0  0  0  0  0  0  0  0
    2.5981   -0.0000    0.0000 O   0  0  0  0  0  0  0  0  0  0  0  0
    3.8971    0.7500    0.0000 C   0  0  0  0  0  0  0  0  0  0  0  0
    5.1962   -0.0000    0.0000 C   0  0  0  0  0  0  0  0  0  0  0  0
    5.9462    1.2990    0.0000 F   0  0  0  0  0  0  0  0  0  0  0  0
    4.4462   -1.2990    0.0000 F   0  0  0  0  0  0  0  0  0  0  0  0
    6.4952   -0.7500    0.0000 C   0  0  0  0  0  0  0  0  0  0  0  0
    6.4952   -2.2500    0.0000 F   0  0  0  0  0  0  0  0  0  0  0  0
    7.7942   -0.0000    0.0000 F   0  0  0  0  0  0  0  0  0  0  0  0
  1  2  1  0
  2  3  2  0
  2  4  1  0
  4  5  1  0
  5  6  1  0
  6  7  1  0
  6  8  1  0
  6  9  1  0
  9 10  1  0
  9 11  1  0
M  END
$$$$

     RDKit          2D

 14 13  0  0  0  0  0  0  0  0999 V2000
   -0.0000   -1.5000    0.0000 O   0  0  0  0  0  0  0  0  0  0  0  0
    0.0000    0.0000    0.0000 C   0  0  0  0  0  0  0  0  0  0  0  0
   -1.2990    0.7500    0.0000 O   0  0  0  0  0  0  0  0  0  0  0  0
    1.2990    0.7500    0.0000 C   0  0  0  0  0  0  0  0  0  0  0  0
    2.0490   -0.5490    0.0000 F   0  0  0  0  0  0  0  0  0  0  0  0
    0.5490    2.0490    0.0000 F   0  0  0  0  0  0  0  0  0  0  0  0
    2.5981    1.5000    0.0000 O   0  0  0  0  0  0  0  0  0  0  0  0
    2.5981    3.0000    0.0000 C   0  0  0  0  0  0  0  0  0  0  0  0
    1.0981    3.0000    0.0000 F   0  0  0  0  0  0  0  0  0  0  0  0
    4.0981    3.0000    0.0000 F   0  0  0  0  0  0  0  0  0  0  0  0
    2.5981    4.5000    0.0000 C   0  0  0  0  0  0  0  0  0  0  0  0
    2.5981    6.0000    0.0000 F   0  0  0  0  0  0  0  0  0  0  0  0
    1.0981    4.5000    0.0000 F   0  0  0  0  0  0  0  0  0  0  0  0
    4.0981    4.5000    0.0000 Br  0  0  0  0  0  0  0  0  0  0  0  0
  1  2  2  0
  2  3  1  0
  2  4  1  0
  4  5  1  0
  4  6  1  0
  4  7  1  0
  7  8  1  0
  8  9  1  0
  8 10  1  0
  8 11  1  0
 11 12  1  0
 11 13  1  0
 11 14  1  0
M  END
$$$$

     RDKit          2D

 17 18  0  0  0  0  0  0  0  0999 V2000
    2.5567   -0.2246    0.0000 F   0  0  0  0  0  0  0  0  0  0  0  0
    2.7135   -1.7164    0.0000 C   0  0  0  0  0  0  0  0  0  0  0  0
    4.0838   -2.3265    0.0000 C   0  0  0  0  0  0  0  0  0  0  0  0
    5.4542   -2.9366    0.0000 F   0  0  0  0  0  0  0  0  0  0  0  0
    4.6939   -0.9562    0.0000 F   0  0  0  0  0  0  0  0  0  0  0  0
    3.4737   -3.6968    0.0000 F   0  0  0  0  0  0  0  0  0  0  0  0
    1.5000   -2.5981    0.0000 C   0  0  0  0  0  0  0  0  0  0  0  0
    0.7500   -1.2990    0.0000 C   0  0  0  0  0  0  0  0  0  0  0  0
    1.5000    0.0000    0.0000 C   0  0  0  0  0  0  0  0  0  0  0  0
    0.7500    1.2990    0.0000 C   0  0  0  0  0  0  0  0  0  0  0  0
   -0.7500    1.2990    0.0000 C   0  0  0  0  0  0  0  0  0  0  0  0
   -1.5000    0.0000    0.0000 C   0  0  0  0  0  0  0  0  0  0  0  0
   -0.7500   -1.2990    0.0000 C   0  0  0  0  0  0  0  0  0  0  0  0
    2.5037   -3.7128    0.0000 O   0  0  0  0  0  0  0  0  0  0  0  0
    1.7537   -5.0118    0.0000 C   0  0  0  0  0  0  0  0  0  0  0  0
    0.2865   -4.7000    0.0000 C   0  0  0  0  0  0  0  0  0  0  0  0
    0.1297   -3.2082    0.0000 O   0  0  0  0  0  0  0  0  0  0  0  0
  1  2  1  0
  2  3  1  0
  3  4  1  0
  3  5  1  0
  3  6  1  0
  2  7  1  0
  7  8  1  0
  8  9  2  0
  9 10  1  0
 10 11  2  0
 11 12  1  0
 12 13  2  0
  7 14  1  0
 14 15  1  0
 15 16  1  0
 16 17  1  0
 17  7  1  0
 13  8  1  0
M  END
$$$$

     RDKit          2D

 22 22  0  0  0  0  0  0  0  0999 V2000
    3.5260    1.2990    0.0000 O   0  0  0  0  0  0  0  0  0  0  0  0
    2.7760    0.0000    0.0000 C   0  0  0  0  0  0  0  0  0  0  0  0
    3.5260   -1.2990    0.0000 C   0  0  0  0  0  0  0  0  0  0  0  0
    2.7760   -2.5981    0.0000 C   0  0  0  0  0  0  0  0  0  0  0  0
    2.0260   -3.8971    0.0000 F   0  0  0  0  0  0  0  0  0  0  0  0
    4.0750   -3.3481    0.0000 F   0  0  0  0  0  0  0  0  0  0  0  0
    1.4769   -1.8481    0.0000 F   0  0  0  0  0  0  0  0  0  0  0  0
    5.0260   -1.2990    0.0000 C   0  0  0  0  0  0  0  0  0  0  0  0
    5.0260   -2.7990    0.0000 F   0  0  0  0  0  0  0  0  0  0  0  0
    5.0260    0.2010    0.0000 F   0  0  0  0  0  0  0  0  0  0  0  0
    6.5260   -1.2990    0.0000 C   0  0  0  0  0  0  0  0  0  0  0  0
    6.5260    0.2010    0.0000 F   0  0  0  0  0  0  0  0  0  0  0  0
    6.5260   -2.7990    0.0000 F   0  0  0  0  0  0  0  0  0  0  0  0
    8.0260   -1.2990    0.0000 C   0  0  0  0  0  0  0  0  0  0  0  0
    9.5260   -1.2990    0.0000 F   0  0  0  0  0  0  0  0  0  0  0  0
    8.0260   -2.7990    0.0000 F   0  0  0  0  0  0  0  0  0  0  0  0
    8.0260    0.2010    0.0000 F   0  0  0  0  0  0  0  0  0  0  0  0
    1.2760    0.0000    0.0000 N   0  0  0  0  0  0  0  0  0  0  0  0
    0.3943    1.2135    0.0000 C   0  0  0  0  0  0  0  0  0  0  0  0
   -1.0323    0.7500    0.0000 C   0  0  0  0  0  0  0  0  0  0  0  0
   -1.0323   -0.7500    0.0000 C   0  0  0  0  0  0  0  0  0  0  0  0
    0.3943   -1.2135    0.0000 C   0  0  0  0  0  0  0  0  0  0  0  0
  1  2  2  0
  2  3  1  0
  3  4  1  0
  4  5  1  0
  4  6  1  0
  4  7  1  0
  3  8  1  0
  8  9  1  0
  8 10  1  0
  8 11  1  0
 11 12  1  0
 11 13  1  0
 11 14  1  0
 14 15  1  0
 14 16  1  0
 14 17  1  0
  2 18  1  0
 18 19  1  0
 19 20  1  0
 20 21  1  0
 21 22  1  0
 22 18  1  0
M  END
$$$$

     RDKit          2D

 20 18  0  0  0  0  0  0  0  0999 V2000
   -0.0000   -1.5000    0.0000 O   0  0  0  0  0  0  0  0  0  0  0  0
    0.0000    0.0000    0.0000 C   0  0  0  0  0  0  0  0  0  0  0  0
   -1.2990    0.7500    0.0000 O   0  0  0  0  0  0  0  0  0  0  0  0
    1.2990    0.7500    0.0000 C   0  0  0  0  0  0  0  0  0  0  0  0
    2.0490   -0.5490    0.0000 F   0  0  0  0  0  0  0  0  0  0  0  0
    0.5490    2.0490    0.0000 F   0  0  0  0  0  0  0  0  0  0  0  0
    2.5981    1.5000    0.0000 C   0  0  0  0  0  0  0  0  0  0  0  0
    1.8481    2.7990    0.0000 F   0  0  0  0  0  0  0  0  0  0  0  0
    3.3481    0.2010    0.0000 F   0  0  0  0  0  0  0  0  0  0  0  0
    3.8971    2.2500    0.0000 C   0  0  0  0  0  0  0  0  0  0  0  0
    4.6471    0.9510    0.0000 F   0  0  0  0  0  0  0  0  0  0  0  0
    3.1471    3.5490    0.0000 F   0  0  0  0  0  0  0  0  0  0  0  0
    5.1962    3.0000    0.0000 C   0  0  0  0  0  0  0  0  0  0  0  0
    4.4462    4.2990    0.0000 F   0  0  0  0  0  0  0  0  0  0  0  0
    5.9462    1.7010    0.0000 F   0  0  0  0  0  0  0  0  0  0  0  0
    6.4952    3.7500    0.0000 C   0  0  0  0  0  0  0  0  0  0  0  0
    7.7942    4.5000    0.0000 F   0  0  0  0  0  0  0  0  0  0  0  0
    7.2452    2.4510    0.0000 F   0  0  0  0  0  0  0  0  0  0  0  0
    5.7452    5.0490    0.0000 F   0  0  0  0  0  0  0  0  0  0  0  0
    0.0000    6.0490    0.0000 Na  0  0  0  0  0 15  0  0  0  0  0  0
  1  2  2  0
  2  3  1  0
  2  4  1  0
  4  5  1  0
  4  6  1  0
  4  7  1  0
  7  8  1  0
  7  9  1  0
  7 10  1  0
 10 11  1  0
 10 12  1  0
 10 13  1  0
 13 14  1  0
 13 15  1  0
 13 16  1  0
 16 17  1  0
 16 18  1  0
 16 19  1  0
M  CHG  2   3  -1  20   1
M  END
$$$$

     RDKit          2D

 20 21  0  0  0  0  0  0  0  0999 V2000
    5.2500   -1.2990    0.0000 C   0  0  0  0  0  0  0  0  0  0  0  0
    3.7500   -1.2990    0.0000 C   0  0  0  0  0  0  0  0  0  0  0  0
    3.0000    0.0000    0.0000 O   0  0  0  0  0  0  0  0  0  0  0  0
    1.5000    0.0000    0.0000 C   0  0  0  0  0  0  0  0  0  0  0  0
    0.7500   -1.2990    0.0000 C   0  0  0  0  0  0  0  0  0  0  0  0
   -0.7500   -1.2990    0.0000 C   0  0  0  0  0  0  0  0  0  0  0  0
   -1.5000    0.0000    0.0000 C   0  0  0  0  0  0  0  0  0  0  0  0
   -3.0000    0.0000    0.0000 C   0  0  0  0  0  0  0  0  0  0  0  0
   -3.0000   -1.5000    0.0000 C   0  0  0  0  0  0  0  0  0  0  0  0
   -1.7010   -2.2500    0.0000 O   0  0  0  0  0  0  0  0  0  0  0  0
   -4.1979   -2.4028    0.0000 O   0  0  0  0  0  0  0  0  0  0  0  0
   -3.0000    1.5000    0.0000 C   0  0  0  0  0  0  0  0  0  0  0  0
   -4.5000    1.5000    0.0000 C   0  0  0  0  0  0  0  0  0  0  0  0
   -6.0000    1.5000    0.0000 F   0  0  0  0  0  0  0  0  0  0  0  0
   -4.5000    3.0000    0.0000 F   0  0  0  0  0  0  0  0  0  0  0  0
   -4.5000    0.0000    0.0000 C   0  0  0  0  0  0  0  0  0  0  0  0
   -4.6828   -1.4888    0.0000 F   0  0  0  0  0  0  0  0  0  0  0  0
   -6.0000    0.0000    0.0000 F   0  0  0  0  0  0  0  0  0  0  0  0
   -0.7500    1.2990    0.0000 C   0  0  0  0  0  0  0  0  0  0  0  0
    0.7500    1.2990    0.0000 C   0  0  0  0  0  0  0  0  0  0  0  0
  1  2  1  0
  2  3  1  0
  3  4  1  0
  4  5  2  0
  5  6  1  0
  6  7  2  0
  7  8  1  0
  8  9  1  1
  9 10  2  0
  9 11  1  0
  8 12  1  0
 12 13  1  0
 13 14  1  0
 13 15  1  0
 13 16  1  0
 16 17  1  0
 16 18  1  0
  7 19  1  0
 19 20  2  0
 20  4  1  0
 16  8  1  0
M  END
$$$$

     RDKit          2D

 20 20  0  0  0  0  0  0  0  0999 V2000
    3.5054    2.0074    0.0000 F   0  0  0  0  0  0  0  0  0  0  0  0
    2.3907    1.0037    0.0000 C   0  0  0  0  0  0  0  0  0  0  0  0
    3.3944   -0.1110    0.0000 F   0  0  0  0  0  0  0  0  0  0  0  0
    1.3870    2.1184    0.0000 F   0  0  0  0  0  0  0  0  0  0  0  0
    1.2760    0.0000    0.0000 C   0  0  0  0  0  0  0  0  0  0  0  0
    2.3907   -1.0037    0.0000 Cl  0  0  0  0  0  0  0  0  0  0  0  0
    0.3943    1.2135    0.0000 O   0  0  0  0  0  0  0  0  0  0  0  0
   -1.0323    0.7500    0.0000 N   0  0  0  0  0  0  0  0  0  0  0  0
   -1.0323   -0.7500    0.0000 C   0  0  0  0  0  0  0  0  0  0  0  0
   -2.2458   -1.6317    0.0000 C   0  0  0  0  0  0  0  0  0  0  0  0
   -3.1275   -0.4182    0.0000 F   0  0  0  0  0  0  0  0  0  0  0  0
   -1.3641   -2.8452    0.0000 F   0  0  0  0  0  0  0  0  0  0  0  0
   -3.4593   -2.5134    0.0000 C   0  0  0  0  0  0  0  0  0  0  0  0
   -2.5777   -3.7269    0.0000 F   0  0  0  0  0  0  0  0  0  0  0  0
   -4.3410   -1.2998    0.0000 F   0  0  0  0  0  0  0  0  0  0  0  0
   -4.6729   -3.3950    0.0000 C   0  0  0  0  0  0  0  0  0  0  0  0
   -5.8864   -4.2767    0.0000 F   0  0  0  0  0  0  0  0  0  0  0  0
   -5.5545   -2.1815    0.0000 F   0  0  0  0  0  0  0  0  0  0  0  0
   -3.7912   -4.6086    0.0000 F   0  0  0  0  0  0  0  0  0  0  0  0
    0.3943   -1.2135    0.0000 O   0  0  0  0  0  0  0  0  0  0  0  0
  1  2  1  0
  2  3  1  0
  2  4  1  0
  2  5  1  0
  5  6  1  0
  5  7  1  0
  7  8  1  0
  8  9  2  0
  9 10  1  0
 10 11  1  0
 10 12  1  0
 10 13  1  0
 13 14  1  0
 13 15  1  0
 13 16  1  0
 16 17  1  0
 16 18  1  0
 16 19  1  0
  9 20  1  0
 20  5  1  0
M  END
$$$$

     RDKit          2D

 11 11  0  0  0  0  0  0  0  0999 V2000
    5.0260    1.2990    0.0000 F   0  0  0  0  0  0  0  0  0  0  0  0
    4.2760    0.0000    0.0000 C   0  0  0  0  0  0  0  0  0  0  0  0
    5.0260   -1.2990    0.0000 F   0  0  0  0  0  0  0  0  0  0  0  0
    2.7760    0.0000    0.0000 C   0  0  0  0  0  0  0  0  0  0  0  0
    2.7760    1.5000    0.0000 F   0  0  0  0  0  0  0  0  0  0  0  0
    2.7760   -1.5000    0.0000 F   0  0  0  0  0  0  0  0  0  0  0  0
    1.2760    0.0000    0.0000 N   0  0  0  0  0  0  0  0  0  0  0  0
    0.3943    1.2135    0.0000 C   0  0  0  0  0  0  0  0  0  0  0  0
   -1.0323    0.7500    0.0000 C   0  0  0  0  0  0  0  0  0  0  0  0
   -1.0323   -0.7500    0.0000 N   0  0  0  0  0  0  0  0  0  0  0  0
    0.3943   -1.2135    0.0000 C   0  0  0  0  0  0  0  0  0  0  0  0
  1  2  1  0
  2  3  1  0
  2  4  1  0
  4  5  1  0
  4  6  1  0
  4  7  1  0
  7  8  1  0
  8  9  2  0
  9 10  1  0
 10 11  2  0
 11  7  1  0
M  END
$$$$

     RDKit          2D

 19 18  0  0  0  0  0  0  0  0999 V2000
    0.0000    0.0000    0.0000 C   0  0  0  0  0  0  0  0  0  0  0  0
    1.2990    0.7500    0.0000 C   0  0  0  0  0  0  0  0  0  0  0  0
    2.5981    1.5000    0.0000 C   0  0  0  0  0  0  0  0  0  0  0  0
    0.5490    2.0490    0.0000 O   0  0  0  0  0  0  0  0  0  0  0  0
    2.0490   -0.5490    0.0000 C   0  0  0  0  0  0  0  0  0  0  0  0
    2.7990   -1.8481    0.0000 C   0  0  0  0  0  0  0  0  0  0  0  0
    3.5490   -3.1471    0.0000 C   0  0  0  0  0  0  0  0  0  0  0  0
    4.8481   -2.3971    0.0000 F   0  0  0  0  0  0  0  0  0  0  0  0
    2.2500   -3.8971    0.0000 F   0  0  0  0  0  0  0  0  0  0  0  0
    4.2990   -4.4462    0.0000 C   0  0  0  0  0  0  0  0  0  0  0  0
    3.0000   -5.1962    0.0000 F   0  0  0  0  0  0  0  0  0  0  0  0
    5.5981   -3.6962    0.0000 F   0  0  0  0  0  0  0  0  0  0  0  0
    5.0490   -5.7452    0.0000 C   0  0  0  0  0  0  0  0  0  0  0  0
    6.3481   -4.9952    0.0000 F   0  0  0  0  0  0  0  0  0  0  0  0
    3.7500   -6.4952    0.0000 F   0  0  0  0  0  0  0  0  0  0  0  0
    5.7990   -7.0442    0.0000 C   0  0  0  0  0  0  0  0  0  0  0  0
    6.5490   -8.3433    0.0000 F   0  0  0  0  0  0  0  0  0  0  0  0
    4.5000   -7.7942    0.0000 F   0  0  0  0  0  0  0  0  0  0  0  0
    7.0981   -6.2942    0.0000 F   0  0  0  0  0  0  0  0  0  0  0  0
  1  2  1  0
  2  3  1  0
  2  4  1  0
  2  5  1  0
  5  6  3  0
  6  7  1  0
  7  8  1  0
  7  9  1  0
  7 10  1  0
 10 11  1  0
 10 12  1  0
 10 13  1  0
 13 14  1  0
 13 15  1  0
 13 16  1  0
 16 17  1  0
 16 18  1  0
 16 19  1  0
M  END
$$$$

     RDKit          2D

 32 31  0  0  0  0  0  0  0  0999 V2000
    0.7912   -1.5972    0.0000 O   0  0  0  0  0  0  0  0  0  0  0  0
   -0.0000   -1.5000    0.0000 P   0  0  0  0  0  0  0  0  0  0  0  0
   -0.0000    0.0000    0.0000 C   0  0  0  0  0  0  0  0  0  0  0  0
   -1.4888    0.1828    0.0000 F   0  0  0  0  0  0  0  0  0  0  0  0
    0.0000    1.5000    0.0000 F   0  0  0  0  0  0  0  0  0  0  0  0
    1.5000    0.0000    0.0000 C   0  0  0  0  0  0  0  0  0  0  0  0
    1.5000    1.5000    0.0000 F   0  0  0  0  0  0  0  0  0  0  0  0
    1.6080   -0.8791    0.0000 F   0  0  0  0  0  0  0  0  0  0  0  0
    3.0000   -0.0000    0.0000 C   0  0  0  0  0  0  0  0  0  0  0  0
    4.5000   -0.0000    0.0000 F   0  0  0  0  0  0  0  0  0  0  0  0
    3.0000    1.5000    0.0000 F   0  0  0  0  0  0  0  0  0  0  0  0
    3.0000   -1.5000    0.0000 F   0  0  0  0  0  0  0  0  0  0  0  0
   -0.0000   -3.0000    0.0000 C   0  0  0  0  0  0  0  0  0  0  0  0
    1.5000   -3.0000    0.0000 F   0  0  0  0  0  0  0  0  0  0  0  0
    0.1828   -4.4888    0.0000 F   0  0  0  0  0  0  0  0  0  0  0  0
   -1.5000   -3.0000    0.0000 C   0  0  0  0  0  0  0  0  0  0  0  0
   -1.8630   -1.5446    0.0000 F   0  0  0  0  0  0  0  0  0  0  0  0
   -1.8630   -4.4554    0.0000 F   0  0  0  0  0  0  0  0  0  0  0  0
   -3.0000   -3.0000    0.0000 C   0  0  0  0  0  0  0  0  0  0  0  0
   -4.5000   -3.0000    0.0000 F   0  0  0  0  0  0  0  0  0  0  0  0
   -3.1828   -4.4888    0.0000 F   0  0  0  0  0  0  0  0  0  0  0  0
   -3.1828   -1.5112    0.0000 F   0  0  0  0  0  0  0  0  0  0  0  0
   -1.5000   -1.5000    0.0000 C   0  0  0  0  0  0  0  0  0  0  0  0
   -1.6828   -0.0112    0.0000 F   0  0  0  0  0  0  0  0  0  0  0  0
   -2.9888   -1.3172    0.0000 F   0  0  0  0  0  0  0  0  0  0  0  0
   -1.5000   -3.0000    0.0000 C   0  0  0  0  0  0  0  0  0  0  0  0
   -0.0446   -3.3630    0.0000 F   0  0  0  0  0  0  0  0  0  0  0  0
   -2.9554   -3.3630    0.0000 F   0  0  0  0  0  0  0  0  0  0  0  0
   -1.5000   -4.5000    0.0000 C   0  0  0  0  0  0  0  0  0  0  0  0
   -1.5000   -6.0000    0.0000 F   0  0  0  0  0  0  0  0  0  0  0  0
   -2.9888   -4.6828    0.0000 F   0  0  0  0  0  0  0  0  0  0  0  0
   -0.0112   -4.6828    0.0000 F   0  0  0  0  0  0  0  0  0  0  0  0
  1  2  2  0
  2  3  1  0
  3  4  1  0
  3  5  1  0
  3  6  1  0
  6  7  1  0
  6  8  1  0
  6  9  1  0
  9 10  1  0
  9 11  1  0
  9 12  1  0
  2 13  1  0
 13 14  1  0
 13 15  1  0
 13 16  1  0
 16 17  1  0
 16 18  1  0
 16 19  1  0
 19 20  1  0
 19 21  1  0
 19 22  1  0
  2 23  1  0
 23 24  1  0
 23 25  1  0
 23 26  1  0
 26 27  1  0
 26 28  1  0
 26 29  1  0
 29 30  1  0
 29 31  1  0
 29 32  1  0
M  END
$$$$

     RDKit          2D

 18 18  0  0  0  0  0  0  0  0999 V2000
    3.0000    0.0000    0.0000 O   0  0  0  0  0  0  0  0  0  0  0  0
    1.5000    0.0000    0.0000 C   0  0  0  0  0  0  0  0  0  0  0  0
    0.7500   -1.2990    0.0000 N   0  0  0  0  0  0  0  0  0  0  0  0
   -0.7500   -1.2990    0.0000 C   0  0  0  0  0  0  0  0  0  0  0  0
   -1.5000    0.0000    0.0000 C   0  0  0  0  0  0  0  0  0  0  0  0
   -3.0000    0.0000    0.0000 C   0  0  0  0  0  0  0  0  0  0  0  0
   -3.0000    1.5000    0.0000 F   0  0  0  0  0  0  0  0  0  0  0  0
   -3.0000   -1.5000    0.0000 F   0  0  0  0  0  0  0  0  0  0  0  0
   -4.5000    0.0000    0.0000 C   0  0  0  0  0  0  0  0  0  0  0  0
   -4.5000   -1.5000    0.0000 F   0  0  0  0  0  0  0  0  0  0  0  0
   -4.5000    1.5000    0.0000 F   0  0  0  0  0  0  0  0  0  0  0  0
   -6.0000    0.0000    0.0000 C   0  0  0  0  0  0  0  0  0  0  0  0
   -7.5000    0.0000    0.0000 F   0  0  0  0  0  0  0  0  0  0  0  0
   -6.0000    1.5000    0.0000 F   0  0  0  0  0  0  0  0  0  0  0  0
   -6.0000   -1.5000    0.0000 F   0  0  0  0  0  0  0  0  0  0  0  0
   -0.7500    1.2990    0.0000 C   0  0  0  0  0  0  0  0  0  0  0  0
   -1.5000    2.5981    0.0000 O   0  0  0  0  0  0  0  0  0  0  0  0
    0.7500    1.2990    0.0000 N   0  0  0  0  0  0  0  0  0  0  0  0
  1  2  2  0
  2  3  1  0
  3  4  1  0
  4  5  1  0
  5  6  1  0
  6  7  1  0
  6  8  1  0
  6  9  1  0
  9 10  1  0
  9 11  1  0
  9 12  1  0
 12 13  1  0
 12 14  1  0
 12 15  1  0
  5 16  1  0
 16 17  2  0
 16 18  1  0
 18  2  1  0
M  END
$$$$

     RDKit          2D

 13 12  0  0  0  0  0  0  0  0999 V2000
   -1.2990    0.7500    0.0000 O   0  0  0  0  0  0  0  0  0  0  0  0
    0.0000    0.0000    0.0000 C   0  0  0  0  0  0  0  0  0  0  0  0
   -0.0000   -1.5000    0.0000 F   0  0  0  0  0  0  0  0  0  0  0  0
    1.2990    0.7500    0.0000 C   0  0  0  0  0  0  0  0  0  0  0  0
    1.6451   -0.0653    0.0000 F   0  0  0  0  0  0  0  0  0  0  0  0
    0.5490    2.0490    0.0000 F   0  0  0  0  0  0  0  0  0  0  0  0
    2.5981    1.5000    0.0000 C   0  0  0  0  0  0  0  0  0  0  0  0
    3.8971    2.2500    0.0000 F   0  0  0  0  0  0  0  0  0  0  0  0
    1.8481    2.7990    0.0000 F   0  0  0  0  0  0  0  0  0  0  0  0
    3.3481    0.2010    0.0000 S   0  0  0  0  0  0  0  0  0  0  0  0
    4.0981   -1.0981    0.0000 O   0  0  0  0  0  0  0  0  0  0  0  0
    4.6471    0.9510    0.0000 O   0  0  0  0  0  0  0  0  0  0  0  0
    2.7114   -0.2788    0.0000 F   0  0  0  0  0  0  0  0  0  0  0  0
  1  2  2  0
  2  3  1  0
  2  4  1  0
  4  5  1  0
  4  6  1  0
  4  7  1  0
  7  8  1  0
  7  9  1  0
  7 10  1  0
 10 11  2  0
 10 12  2  0
 10 13  1  0
M  END
$$$$

     RDKit          2D

 21 22  0  0  0  0  0  0  0  0999 V2000
    3.7500   -3.8971    0.0000 F   0  0  0  0  0  0  0  0  0  0  0  0
    4.5000   -2.5981    0.0000 C   0  0  0  0  0  0  0  0  0  0  0  0
    6.0000   -2.5981    0.0000 F   0  0  0  0  0  0  0  0  0  0  0  0
    3.7500   -1.2990    0.0000 C   0  0  0  0  0  0  0  0  0  0  0  0
    2.4510   -2.0490    0.0000 F   0  0  0  0  0  0  0  0  0  0  0  0
    5.0490   -0.5490    0.0000 F   0  0  0  0  0  0  0  0  0  0  0  0
    3.0000    0.0000    0.0000 O   0  0  0  0  0  0  0  0  0  0  0  0
    1.5000    0.0000    0.0000 C   0  0  0  0  0  0  0  0  0  0  0  0
    0.7500   -1.2990    0.0000 C   0  0  0  0  0  0  0  0  0  0  0  0
   -0.7500   -1.2990    0.0000 C   0  0  0  0  0  0  0  0  0  0  0  0
   -1.5000    0.0000    0.0000 C   0  0  0  0  0  0  0  0  0  0  0  0
   -0.7500    1.2990    0.0000 C   0  0  0  0  0  0  0  0  0  0  0  0
    0.7500    1.2990    0.0000 C   0  0  0  0  0  0  0  0  0  0  0  0
    1.5000    2.5981    0.0000 N   0  0  0  0  0  0  0  0  0  0  0  0
    3.0000    2.5981    0.0000 C   0  0  0  0  0  0  0  0  0  0  0  0
    3.7500    3.8971    0.0000 C   0  0  0  0  0  0  0  0  0  0  0  0
    5.2500    3.8971    0.0000 C   0  0  0  0  0  0  0  0  0  0  0  0
    6.0000    5.1962    0.0000 C   0  0  0  0  0  0  0  0  0  0  0  0
    5.2500    6.4952    0.0000 C   0  0  0  0  0  0  0  0  0  0  0  0
    3.7500    6.4952    0.0000 N   0  0  0  0  0  0  0  0  0  0  0  0
    3.0000    5.1962    0.0000 C   0  0  0  0  0  0  0  0  0  0  0  0
  1  2  1  0
  2  3  1  0
  2  4  1  0
  4  5  1  0
  4  6  1  0
  4  7  1  0
  7  8  1  0
  8  9  2  0
  9 10  1  0
 10 11  2  0
 11 12  1  0
 12 13  2  0
 13 14  1  0
 14 15  2  0
 15 16  1  0
 16 17  2  0
 17 18  1  0
 18 19  2  0
 19 20  1  0
 20 21  2  0
 13  8  1  0
 21 16  1  0
M  END
$$$$

     RDKit          2D

 27 26  0  0  0  0  0  0  0  0999 V2000
    0.0000    0.0000    0.0000 C   0  0  0  0  0  0  0  0  0  0  0  0
    1.2990    0.7500    0.0000 C   0  0  0  0  0  0  0  0  0  0  0  0
    2.5981   -0.0000    0.0000 O   0  0  0  0  0  0  0  0  0  0  0  0
    3.8971    0.7500    0.0000 C   0  0  0  0  0  0  0  0  0  0  0  0
    3.8971    2.2500    0.0000 O   0  0  0  0  0  0  0  0  0  0  0  0
    5.1962   -0.0000    0.0000 O   0  0  0  0  0  0  0  0  0  0  0  0
    6.4952    0.7500    0.0000 C   0  0  0  0  0  0  0  0  0  0  0  0
    7.7942   -0.0000    0.0000 C   0  0  0  0  0  0  0  0  0  0  0  0
    9.0933    0.7500    0.0000 C   0  0  0  0  0  0  0  0  0  0  0  0
    9.8433   -0.5490    0.0000 F   0  0  0  0  0  0  0  0  0  0  0  0
    8.3433    2.0490    0.0000 F   0  0  0  0  0  0  0  0  0  0  0  0
   10.3923    1.5000    0.0000 C   0  0  0  0  0  0  0  0  0  0  0  0
    9.6423    2.7990    0.0000 F   0  0  0  0  0  0  0  0  0  0  0  0
   11.1423    0.2010    0.0000 F   0  0  0  0  0  0  0  0  0  0  0  0
   11.6913    2.2500    0.0000 C   0  0  0  0  0  0  0  0  0  0  0  0
   12.4413    0.9510    0.0000 F   0  0  0  0  0  0  0  0  0  0  0  0
   10.9413    3.5490    0.0000 F   0  0  0  0  0  0  0  0  0  0  0  0
   12.9904    3.0000    0.0000 C   0  0  0  0  0  0  0  0  0  0  0  0
   12.2404    4.2990    0.0000 F   0  0  0  0  0  0  0  0  0  0  0  0
   13.7404    1.7010    0.0000 F   0  0  0  0  0  0  0  0  0  0  0  0
   14.2894    3.7500    0.0000 C   0  0  0  0  0  0  0  0  0  0  0  0
   15.0394    2.4510    0.0000 F   0  0  0  0  0  0  0  0  0  0  0  0
   13.5394    5.0490    0.0000 F   0  0  0  0  0  0  0  0  0  0  0  0
   15.5885    4.5000    0.0000 C   0  0  0  0  0  0  0  0  0  0  0  0
   16.8875    5.2500    0.0000 F   0  0  0  0  0  0  0  0  0  0  0  0
   14.8385    5.7990    0.0000 F   0  0  0  0  0  0  0  0  0  0  0  0
   16.3385    3.2010    0.0000 F   0  0  0  0  0  0  0  0  0  0  0  0
  1  2  2  0
  2  3  1  0
  3  4  1  0
  4  5  2  0
  4  6  1  0
  6  7  1  0
  7  8  1  0
  8  9  1  0
  9 10  1  0
  9 11  1  0
  9 12  1  0
 12 13  1  0
 12 14  1  0
 12 15  1  0
 15 16  1  0
 15 17  1  0
 15 18  1  0
 18 19  1  0
 18 20  1  0
 18 21  1  0
 21 22  1  0
 21 23  1  0
 21 24  1  0
 24 25  1  0
 24 26  1  0
 24 27  1  0
M  END
$$$$

     RDKit          2D

 32 31  0  0  0  0  0  0  0  0999 V2000
   -2.5981   -1.5000    0.0000 O   0  0  0  0  0  0  0  0  0  0  0  0
   -2.5981    0.0000    0.0000 C   0  0  0  0  0  0  0  0  0  0  0  0
   -1.2990    0.7500    0.0000 O   0  0  0  0  0  0  0  0  0  0  0  0
    0.0000    0.0000    0.0000 C   0  0  0  0  0  0  0  0  0  0  0  0
    1.2990    0.7500    0.0000 C   0  0  0  0  0  0  0  0  0  0  0  0
    2.0490   -0.5490    0.0000 F   0  0  0  0  0  0  0  0  0  0  0  0
    0.5490    2.0490    0.0000 F   0  0  0  0  0  0  0  0  0  0  0  0
    2.5981    1.5000    0.0000 C   0  0  0  0  0  0  0  0  0  0  0  0
    1.8481    2.7990    0.0000 F   0  0  0  0  0  0  0  0  0  0  0  0
    3.3481    0.2010    0.0000 F   0  0  0  0  0  0  0  0  0  0  0  0
    3.8971    2.2500    0.0000 C   0  0  0  0  0  0  0  0  0  0  0  0
    3.1471    3.5490    0.0000 F   0  0  0  0  0  0  0  0  0  0  0  0
    4.6471    0.9510    0.0000 F   0  0  0  0  0  0  0  0  0  0  0  0
    5.1962    3.0000    0.0000 C   0  0  0  0  0  0  0  0  0  0  0  0
    5.1962    4.5000    0.0000 F   0  0  0  0  0  0  0  0  0  0  0  0
    6.4952    2.2500    0.0000 F   0  0  0  0  0  0  0  0  0  0  0  0
   -3.8971    0.7500    0.0000 C   0  0  0  0  0  0  0  0  0  0  0  0
   -3.8971    2.2500    0.0000 O   0  0  0  0  0  0  0  0  0  0  0  0
   -5.1962    0.0000    0.0000 O   0  0  0  0  0  0  0  0  0  0  0  0
   -6.4952    0.7500    0.0000 C   0  0  0  0  0  0  0  0  0  0  0  0
   -7.7942    0.0000    0.0000 C   0  0  0  0  0  0  0  0  0  0  0  0
   -8.5442    1.2990    0.0000 F   0  0  0  0  0  0  0  0  0  0  0  0
   -7.0442   -1.2990    0.0000 F   0  0  0  0  0  0  0  0  0  0  0  0
   -9.0933   -0.7500    0.0000 C   0  0  0  0  0  0  0  0  0  0  0  0
   -8.3433   -2.0490    0.0000 F   0  0  0  0  0  0  0  0  0  0  0  0
   -9.8433    0.5490    0.0000 F   0  0  0  0  0  0  0  0  0  0  0  0
  -10.3923   -1.5000    0.0000 C   0  0  0  0  0  0  0  0  0  0  0  0
   -9.6423   -2.7990    0.0000 F   0  0  0  0  0  0  0  0  0  0  0  0
  -11.1423   -0.2010    0.0000 F   0  0  0  0  0  0  0  0  0  0  0  0
  -11.6913   -2.2500    0.0000 C   0  0  0  0  0  0  0  0  0  0  0  0
  -11.6913   -3.7500    0.0000 F   0  0  0  0  0  0  0  0  0  0  0  0
  -12.9904   -1.5000    0.0000 F   0  0  0  0  0  0  0  0  0  0  0  0
  1  2  2  0
  2  3  1  0
  3  4  1  0
  4  5  1  0
  5  6  1  0
  5  7  1  0
  5  8  1  0
  8  9  1  0
  8 10  1  0
  8 11  1  0
 11 12  1  0
 11 13  1  0
 11 14  1  0
 14 15  1  0
 14 16  1  0
  2 17  1  0
 17 18  2  0
 17 19  1  0
 19 20  1  0
 20 21  1  0
 21 22  1  0
 21 23  1  0
 21 24  1  0
 24 25  1  0
 24 26  1  0
 24 27  1  0
 27 28  1  0
 27 29  1  0
 27 30  1  0
 30 31  1  0
 30 32  1  0
M  END
$$$$

     RDKit          2D

 16 15  0  0  0  0  0  0  0  0999 V2000
   -0.0000   -1.5000    0.0000 O   0  0  0  0  0  0  0  0  0  0  0  0
    0.0000    0.0000    0.0000 C   0  0  0  0  0  0  0  0  0  0  0  0
   -1.2990    0.7500    0.0000 N   0  0  0  0  0  0  0  0  0  0  0  0
   -2.5981    0.0000    0.0000 C   0  0  0  0  0  0  0  0  0  0  0  0
   -3.8971   -0.7500    0.0000 F   0  0  0  0  0  0  0  0  0  0  0  0
   -3.3481    1.2990    0.0000 F   0  0  0  0  0  0  0  0  0  0  0  0
   -1.8481   -1.2990    0.0000 F   0  0  0  0  0  0  0  0  0  0  0  0
    1.2990    0.7500    0.0000 C   0  0  0  0  0  0  0  0  0  0  0  0
    2.5981   -0.0000    0.0000 C   0  0  0  0  0  0  0  0  0  0  0  0
    3.8971   -0.7500    0.0000 F   0  0  0  0  0  0  0  0  0  0  0  0
    3.3481    1.2990    0.0000 F   0  0  0  0  0  0  0  0  0  0  0  0
    1.8481   -1.2990    0.0000 F   0  0  0  0  0  0  0  0  0  0  0  0
    1.2990    2.2500    0.0000 C   0  0  0  0  0  0  0  0  0  0  0  0
    1.2990    3.7500    0.0000 F   0  0  0  0  0  0  0  0  0  0  0  0
    2.7990    2.2500    0.0000 F   0  0  0  0  0  0  0  0  0  0  0  0
   -0.2010    2.2500    0.0000 F   0  0  0  0  0  0  0  0  0  0  0  0
  1  2  2  0
  2  3  1  0
  3  4  1  0
  4  5  1  0
  4  6  1  0
  4  7  1  0
  2  8  1  0
  8  9  1  0
  9 10  1  0
  9 11  1  0
  9 12  1  0
  8 13  1  0
 13 14  1  0
 13 15  1  0
 13 16  1  0
M  END
$$$$

     RDKit          2D

 14 13  0  0  0  0  0  0  0  0999 V2000
   -1.2990    0.7500    0.0000 O   0  0  0  0  0  0  0  0  0  0  0  0
    0.0000    0.0000    0.0000 C   0  0  0  0  0  0  0  0  0  0  0  0
    1.2990    0.7500    0.0000 C   0  0  0  0  0  0  0  0  0  0  0  0
    2.5981   -0.0000    0.0000 C   0  0  0  0  0  0  0  0  0  0  0  0
    3.3481    1.2990    0.0000 F   0  0  0  0  0  0  0  0  0  0  0  0
    1.8481   -1.2990    0.0000 F   0  0  0  0  0  0  0  0  0  0  0  0
    3.8971   -0.7500    0.0000 C   0  0  0  0  0  0  0  0  0  0  0  0
    4.6471    0.5490    0.0000 F   0  0  0  0  0  0  0  0  0  0  0  0
    3.1471   -2.0490    0.0000 F   0  0  0  0  0  0  0  0  0  0  0  0
    5.1962   -1.5000    0.0000 C   0  0  0  0  0  0  0  0  0  0  0  0
    5.1962   -3.0000    0.0000 F   0  0  0  0  0  0  0  0  0  0  0  0
    6.4952   -0.7500    0.0000 C   0  0  0  0  0  0  0  0  0  0  0  0
    7.7942   -1.5000    0.0000 F   0  0  0  0  0  0  0  0  0  0  0  0
    6.4952    0.7500    0.0000 F   0  0  0  0  0  0  0  0  0  0  0  0
  1  2  1  0
  2  3  1  0
  3  4  1  0
  4  5  1  0
  4  6  1  0
  4  7  1  0
  7  8  1  0
  7  9  1  0
  7 10  1  0
 10 11  1  0
 10 12  2  0
 12 13  1  0
 12 14  1  0
M  END
$$$$

     RDKit          2D

 17 17  0  0  0  0  0  0  0  0999 V2000
    5.7760   -2.5981    0.0000 C   0  0  0  0  0  0  0  0  0  0  0  0
    5.0260   -1.2990    0.0000 N   0  0  0  0  0  0  0  0  0  0  0  0
    3.5260   -1.2990    0.0000 C   0  0  0  0  0  0  0  0  0  0  0  0
    2.7760   -2.5981    0.0000 O   0  0  0  0  0  0  0  0  0  0  0  0
    2.7760    0.0000    0.0000 N   0  0  0  0  0  0  0  0  0  0  0  0
    1.2760    0.0000    0.0000 C   0  0  0  0  0  0  0  0  0  0  0  0
    0.3943    1.2135    0.0000 N   0  0  0  0  0  0  0  0  0  0  0  0
   -1.0323    0.7500    0.0000 N   0  0  0  0  0  0  0  0  0  0  0  0
   -1.0323   -0.7500    0.0000 C   0  0  0  0  0  0  0  0  0  0  0  0
   -2.2458   -1.6317    0.0000 C   0  0  0  0  0  0  0  0  0  0  0  0
   -1.3641   -2.8452    0.0000 F   0  0  0  0  0  0  0  0  0  0  0  0
   -3.1275   -0.4182    0.0000 F   0  0  0  0  0  0  0  0  0  0  0  0
   -3.4593   -2.5134    0.0000 C   0  0  0  0  0  0  0  0  0  0  0  0
   -4.6729   -3.3950    0.0000 F   0  0  0  0  0  0  0  0  0  0  0  0
   -2.5777   -3.7269    0.0000 F   0  0  0  0  0  0  0  0  0  0  0  0
   -4.3410   -1.2998    0.0000 F   0  0  0  0  0  0  0  0  0  0  0  0
    0.3943   -1.2135    0.0000 S   0  0  0  0  0  0  0  0  0  0  0  0
  1  2  1  0
  2  3  1  0
  3  4  2  0
  3  5  1  0
  5  6  1  0
  6  7  2  0
  7  8  1  0
  8  9  2  0
  9 10  1  0
 10 11  1  0
 10 12  1  0
 10 13  1  0
 13 14  1  0
 13 15  1  0
 13 16  1  0
  9 17  1  0
 17  6  1  0
M  END
$$$$

     RDKit          2D

 15 15  0  0  0  0  0  0  0  0999 V2000
    4.2760    0.0000    0.0000 F   0  0  0  0  0  0  0  0  0  0  0  0
    2.7760    0.0000    0.0000 C   0  0  0  0  0  0  0  0  0  0  0  0
    2.7760   -1.5000    0.0000 F   0  0  0  0  0  0  0  0  0  0  0  0
    2.7760    1.5000    0.0000 F   0  0  0  0  0  0  0  0  0  0  0  0
    1.2760    0.0000    0.0000 N   0  0  0  0  0  0  0  0  0  0  0  0
    0.3943    1.2135    0.0000 C   0  0  0  0  0  0  0  0  0  0  0  0
   -0.2158    2.5838    0.0000 F   0  0  0  0  0  0  0  0  0  0  0  0
    1.6933    1.9635    0.0000 F   0  0  0  0  0  0  0  0  0  0  0  0
   -1.0323    0.7500    0.0000 O   0  0  0  0  0  0  0  0  0  0  0  0
   -1.0323   -0.7500    0.0000 C   0  0  0  0  0  0  0  0  0  0  0  0
   -1.3442   -2.2172    0.0000 F   0  0  0  0  0  0  0  0  0  0  0  0
   -2.5241   -0.5932    0.0000 F   0  0  0  0  0  0  0  0  0  0  0  0
    0.3943   -1.2135    0.0000 C   0  0  0  0  0  0  0  0  0  0  0  0
    1.6933   -1.9635    0.0000 F   0  0  0  0  0  0  0  0  0  0  0  0
   -0.2158   -2.5838    0.0000 Br  0  0  0  0  0  0  0  0  0  0  0  0
  1  2  1  0
  2  3  1  0
  2  4  1  0
  2  5  1  0
  5  6  1  0
  6  7  1  0
  6  8  1  0
  6  9  1  0
  9 10  1  0
 10 11  1  0
 10 12  1  0
 10 13  1  0
 13 14  1  0
 13 15  1  0
 13  5  1  0
M  END
$$$$

     RDKit          2D

 18 17  0  0  0  0  0  0  0  0999 V2000
    0.0000    0.0000    0.0000 C   0  0  0  0  0  0  0  0  0  0  0  0
    1.2990    0.7500    0.0000 C   0  0  0  0  0  0  0  0  0  0  0  0
    2.5981   -0.0000    0.0000 S   0  0  0  0  0  0  0  0  0  0  0  0
    3.8971    0.7500    0.0000 C   0  0  0  0  0  0  0  0  0  0  0  0
    3.1471    2.0490    0.0000 F   0  0  0  0  0  0  0  0  0  0  0  0
    5.1962    1.5000    0.0000 F   0  0  0  0  0  0  0  0  0  0  0  0
    4.6471   -0.5490    0.0000 C   0  0  0  0  0  0  0  0  0  0  0  0
    3.3481   -1.2990    0.0000 F   0  0  0  0  0  0  0  0  0  0  0  0
    5.9462    0.2010    0.0000 F   0  0  0  0  0  0  0  0  0  0  0  0
    5.3971   -1.8481    0.0000 C   0  0  0  0  0  0  0  0  0  0  0  0
    4.0981   -2.5981    0.0000 F   0  0  0  0  0  0  0  0  0  0  0  0
    6.6962   -1.0981    0.0000 F   0  0  0  0  0  0  0  0  0  0  0  0
    6.1471   -3.1471    0.0000 O   0  0  0  0  0  0  0  0  0  0  0  0
    7.6471   -3.1471    0.0000 C   0  0  0  0  0  0  0  0  0  0  0  0
    8.3971   -1.8481    0.0000 F   0  0  0  0  0  0  0  0  0  0  0  0
    8.3971   -4.4462    0.0000 C   0  0  0  0  0  0  0  0  0  0  0  0
    9.8971   -4.4462    0.0000 F   0  0  0  0  0  0  0  0  0  0  0  0
    7.6471   -5.7452    0.0000 F   0  0  0  0  0  0  0  0  0  0  0  0
  1  2  1  0
  2  3  1  0
  3  4  1  0
  4  5  1  0
  4  6  1  0
  4  7  1  0
  7  8  1  0
  7  9  1  0
  7 10  1  0
 10 11  1  0
 10 12  1  0
 10 13  1  0
 13 14  1  0
 14 15  1  0
 14 16  2  0
 16 17  1  0
 16 18  1  0
M  END
$$$$

     RDKit          2D

 19 19  0  0  0  0  0  0  0  0999 V2000
    5.2500   -1.2990    0.0000 C   0  0  0  0  0  0  0  0  0  0  0  0
    3.7500   -1.2990    0.0000 C   0  0  0  0  0  0  0  0  0  0  0  0
    3.0000   -2.5981    0.0000 C   0  0  0  0  0  0  0  0  0  0  0  0
    3.0000    0.0000    0.0000 C   0  0  0  0  0  0  0  0  0  0  0  0
    3.7500    1.2990    0.0000 O   0  0  0  0  0  0  0  0  0  0  0  0
    1.5000    0.0000    0.0000 C   0  0  0  0  0  0  0  0  0  0  0  0
    0.7500   -1.2990    0.0000 C   0  0  0  0  0  0  0  0  0  0  0  0
   -0.7500   -1.2990    0.0000 C   0  0  0  0  0  0  0  0  0  0  0  0
   -1.5000    0.0000    0.0000 C   0  0  0  0  0  0  0  0  0  0  0  0
   -3.0000    0.0000    0.0000 O   0  0  0  0  0  0  0  0  0  0  0  0
   -3.7500    1.2990    0.0000 C   0  0  0  0  0  0  0  0  0  0  0  0
   -2.4510    2.0490    0.0000 F   0  0  0  0  0  0  0  0  0  0  0  0
   -5.0490    0.5490    0.0000 F   0  0  0  0  0  0  0  0  0  0  0  0
   -4.5000    2.5981    0.0000 C   0  0  0  0  0  0  0  0  0  0  0  0
   -5.2500    3.8971    0.0000 F   0  0  0  0  0  0  0  0  0  0  0  0
   -3.2010    3.3481    0.0000 F   0  0  0  0  0  0  0  0  0  0  0  0
   -5.7990    1.8481    0.0000 F   0  0  0  0  0  0  0  0  0  0  0  0
   -0.7500    1.2990    0.0000 C   0  0  0  0  0  0  0  0  0  0  0  0
    0.7500    1.2990    0.0000 C   0  0  0  0  0  0  0  0  0  0  0  0
  1  2  1  0
  2  3  1  0
  2  4  1  0
  4  5  2  0
  4  6  1  0
  6  7  2  0
  7  8  1  0
  8  9  2  0
  9 10  1  0
 10 11  1  0
 11 12  1  0
 11 13  1  0
 11 14  1  0
 14 15  1  0
 14 16  1  0
 14 17  1  0
  9 18  1  0
 18 19  2  0
 19  6  1  0
M  END
$$$$

     RDKit          2D

 28 28  0  0  0  0  0  0  0  0999 V2000
   13.5000    0.0000    0.0000 F   0  0  0  0  0  0  0  0  0  0  0  0
   12.0000    0.0000    0.0000 C   0  0  0  0  0  0  0  0  0  0  0  0
   12.0000   -1.5000    0.0000 F   0  0  0  0  0  0  0  0  0  0  0  0
   12.0000    1.5000    0.0000 F   0  0  0  0  0  0  0  0  0  0  0  0
   10.5000    0.0000    0.0000 C   0  0  0  0  0  0  0  0  0  0  0  0
   10.5000    1.5000    0.0000 F   0  0  0  0  0  0  0  0  0  0  0  0
   10.5000   -1.5000    0.0000 F   0  0  0  0  0  0  0  0  0  0  0  0
    9.0000    0.0000    0.0000 C   0  0  0  0  0  0  0  0  0  0  0  0
    9.0000   -1.5000    0.0000 F   0  0  0  0  0  0  0  0  0  0  0  0
    9.0000    1.5000    0.0000 F   0  0  0  0  0  0  0  0  0  0  0  0
    7.5000    0.0000    0.0000 C   0  0  0  0  0  0  0  0  0  0  0  0
    7.5000    1.5000    0.0000 F   0  0  0  0  0  0  0  0  0  0  0  0
    7.5000   -1.5000    0.0000 F   0  0  0  0  0  0  0  0  0  0  0  0
    6.0000    0.0000    0.0000 C   0  0  0  0  0  0  0  0  0  0  0  0
    6.0000   -1.5000    0.0000 F   0  0  0  0  0  0  0  0  0  0  0  0
    6.0000    1.5000    0.0000 F   0  0  0  0  0  0  0  0  0  0  0  0
    4.5000    0.0000    0.0000 C   0  0  0  0  0  0  0  0  0  0  0  0
    4.5000    1.5000    0.0000 F   0  0  0  0  0  0  0  0  0  0  0  0
    4.5000   -1.5000    0.0000 F   0  0  0  0  0  0  0  0  0  0  0  0
    3.0000    0.0000    0.0000 C   0  0  0  0  0  0  0  0  0  0  0  0
    3.0000   -1.5000    0.0000 F   0  0  0  0  0  0  0  0  0  0  0  0
    3.0000    1.5000    0.0000 F   0  0  0  0  0  0  0  0  0  0  0  0
    1.5000    0.0000    0.0000 C   0  0  0  0  0  0  0  0  0  0  0  0
    0.7500   -1.2990    0.0000 C   0  0  0  0  0  0  0  0  0  0  0  0
   -0.7500   -1.2990    0.0000 C   0  0  0  0  0  0  0  0  0  0  0  0
   -1.5000    0.0000    0.0000 C   0  0  0  0  0  0  0  0  0  0  0  0
   -0.7500    1.2990    0.0000 C   0  0  0  0  0  0  0  0  0  0  0  0
    0.7500    1.2990    0.0000 C   0  0  0  0  0  0  0  0  0  0  0  0
  1  2  1  0
  2  3  1  0
  2  4  1  0
  2  5  1  0
  5  6  1  0
  5  7  1  0
  5  8  1  0
  8  9  1  0
  8 10  1  0
  8 11  1  0
 11 12  1  0
 11 13  1  0
 11 14  1  0
 14 15  1  0
 14 16  1  0
 14 17  1  0
 17 18  1  0
 17 19  1  0
 17 20  1  0
 20 21  1  0
 20 22  1  0
 20 23  1  0
 23 24  2  0
 24 25  1  0
 25 26  2  0
 26 27  1  0
 27 28  2  0
 28 23  1  0
M  END
$$$$

     RDKit          2D

 20 19  0  0  0  0  0  0  0  0999 V2000
   -1.5000   -0.0000    0.0000 F   0  0  0  0  0  0  0  0  0  0  0  0
    0.0000   -0.0000    0.0000 C   0  0  0  0  0  0  0  0  0  0  0  0
    0.0000    1.5000    0.0000 F   0  0  0  0  0  0  0  0  0  0  0  0
   -0.0000   -1.5000    0.0000 F   0  0  0  0  0  0  0  0  0  0  0  0
    1.5000    0.0000    0.0000 C   0  0  0  0  0  0  0  0  0  0  0  0
    1.3920    0.8791    0.0000 F   0  0  0  0  0  0  0  0  0  0  0  0
    1.3172   -1.4888    0.0000 F   0  0  0  0  0  0  0  0  0  0  0  0
    3.0000    0.0000    0.0000 C   0  0  0  0  0  0  0  0  0  0  0  0
    4.5000    0.0000    0.0000 C   0  0  0  0  0  0  0  0  0  0  0  0
    6.0000    0.0000    0.0000 F   0  0  0  0  0  0  0  0  0  0  0  0
    4.6080   -0.8791    0.0000 F   0  0  0  0  0  0  0  0  0  0  0  0
    4.6080    0.8791    0.0000 F   0  0  0  0  0  0  0  0  0  0  0  0
    3.0000    1.5000    0.0000 C   0  0  0  0  0  0  0  0  0  0  0  0
    3.0000    3.0000    0.0000 F   0  0  0  0  0  0  0  0  0  0  0  0
    2.1209    1.6080    0.0000 F   0  0  0  0  0  0  0  0  0  0  0  0
    3.8791    1.6080    0.0000 F   0  0  0  0  0  0  0  0  0  0  0  0
    3.0000   -1.5000    0.0000 C   0  0  0  0  0  0  0  0  0  0  0  0
    3.0000   -3.0000    0.0000 F   0  0  0  0  0  0  0  0  0  0  0  0
    3.8791   -1.6080    0.0000 F   0  0  0  0  0  0  0  0  0  0  0  0
    1.5112   -1.6828    0.0000 F   0  0  0  0  0  0  0  0  0  0  0  0
  1  2  1  0
  2  3  1  0
  2  4  1  0
  2  5  1  0
  5  6  1  0
  5  7  1  0
  5  8  1  0
  8  9  1  0
  9 10  1  0
  9 11  1  0
  9 12  1  0
  8 13  1  0
 13 14  1  0
 13 15  1  0
 13 16  1  0
  8 17  1  0
 17 18  1  0
 17 19  1  0
 17 20  1  0
M  END
$$$$

     RDKit          2D

 18 18  0  0  0  0  0  0  0  0999 V2000
    3.7500    1.2990    0.0000 O   0  0  0  0  0  0  0  0  0  0  0  0
    3.0000    0.0000    0.0000 N   0  0  0  0  0  0  0  0  0  0  0  0
    3.7500   -1.2990    0.0000 O   0  0  0  0  0  0  0  0  0  0  0  0
    1.5000    0.0000    0.0000 C   0  0  0  0  0  0  0  0  0  0  0  0
    0.7500   -1.2990    0.0000 C   0  0  0  0  0  0  0  0  0  0  0  0
   -0.7500   -1.2990    0.0000 C   0  0  0  0  0  0  0  0  0  0  0  0
   -1.5000    0.0000    0.0000 C   0  0  0  0  0  0  0  0  0  0  0  0
   -3.0000    0.0000    0.0000 O   0  0  0  0  0  0  0  0  0  0  0  0
   -3.7500    1.2990    0.0000 C   0  0  0  0  0  0  0  0  0  0  0  0
   -2.4510    2.0490    0.0000 F   0  0  0  0  0  0  0  0  0  0  0  0
   -5.0490    0.5490    0.0000 F   0  0  0  0  0  0  0  0  0  0  0  0
   -4.5000    2.5981    0.0000 C   0  0  0  0  0  0  0  0  0  0  0  0
   -5.2500    3.8971    0.0000 F   0  0  0  0  0  0  0  0  0  0  0  0
   -3.2010    3.3481    0.0000 F   0  0  0  0  0  0  0  0  0  0  0  0
   -5.7990    1.8481    0.0000 Br  0  0  0  0  0  0  0  0  0  0  0  0
   -0.7500    1.2990    0.0000 C   0  0  0  0  0  0  0  0  0  0  0  0
   -1.5000    2.5981    0.0000 Cl  0  0  0  0  0  0  0  0  0  0  0  0
    0.7500    1.2990    0.0000 C   0  0  0  0  0  0  0  0  0  0  0  0
  1  2  2  0
  2  3  1  0
  2  4  1  0
  4  5  2  0
  5  6  1  0
  6  7  2  0
  7  8  1  0
  8  9  1  0
  9 10  1  0
  9 11  1  0
  9 12  1  0
 12 13  1  0
 12 14  1  0
 12 15  1  0
  7 16  1  0
 16 17  1  0
 16 18  2  0
 18  4  1  0
M  CHG  2   2   1   3  -1
M  END
$$$$

     RDKit          2D

 28 27  0  0  0  0  0  0  0  0999 V2000
   -1.2990    0.7500    0.0000 O   0  0  0  0  0  0  0  0  0  0  0  0
    0.0000    0.0000    0.0000 C   0  0  0  0  0  0  0  0  0  0  0  0
    1.2990    0.7500    0.0000 C   0  0  0  0  0  0  0  0  0  0  0  0
    2.5981   -0.0000    0.0000 O   0  0  0  0  0  0  0  0  0  0  0  0
    3.8971    0.7500    0.0000 C   0  0  0  0  0  0  0  0  0  0  0  0
    5.1962   -0.0000    0.0000 C   0  0  0  0  0  0  0  0  0  0  0  0
    6.4952    0.7500    0.0000 S   0  0  0  0  0  0  0  0  0  0  0  0
    7.7942   -0.0000    0.0000 C   0  0  0  0  0  0  0  0  0  0  0  0
    9.0933    0.7500    0.0000 C   0  0  0  0  0  0  0  0  0  0  0  0
   10.3923   -0.0000    0.0000 C   0  0  0  0  0  0  0  0  0  0  0  0
   11.1423    1.2990    0.0000 F   0  0  0  0  0  0  0  0  0  0  0  0
    9.6423   -1.2990    0.0000 F   0  0  0  0  0  0  0  0  0  0  0  0
   11.6913   -0.7500    0.0000 C   0  0  0  0  0  0  0  0  0  0  0  0
   10.9413   -2.0490    0.0000 F   0  0  0  0  0  0  0  0  0  0  0  0
   12.4413    0.5490    0.0000 F   0  0  0  0  0  0  0  0  0  0  0  0
   12.9904   -1.5000    0.0000 C   0  0  0  0  0  0  0  0  0  0  0  0
   13.7404   -0.2010    0.0000 F   0  0  0  0  0  0  0  0  0  0  0  0
   12.2404   -2.7990    0.0000 F   0  0  0  0  0  0  0  0  0  0  0  0
   14.2894   -2.2500    0.0000 C   0  0  0  0  0  0  0  0  0  0  0  0
   13.5394   -3.5490    0.0000 F   0  0  0  0  0  0  0  0  0  0  0  0
   15.0394   -0.9510    0.0000 F   0  0  0  0  0  0  0  0  0  0  0  0
   15.5885   -3.0000    0.0000 C   0  0  0  0  0  0  0  0  0  0  0  0
   16.3385   -1.7010    0.0000 F   0  0  0  0  0  0  0  0  0  0  0  0
   14.8385   -4.2990    0.0000 F   0  0  0  0  0  0  0  0  0  0  0  0
   16.8875   -3.7500    0.0000 C   0  0  0  0  0  0  0  0  0  0  0  0
   18.1865   -4.5000    0.0000 F   0  0  0  0  0  0  0  0  0  0  0  0
   16.1375   -5.0490    0.0000 F   0  0  0  0  0  0  0  0  0  0  0  0
   17.6375   -2.4510    0.0000 F   0  0  0  0  0  0  0  0  0  0  0  0
  1  2  1  0
  2  3  1  0
  3  4  1  0
  4  5  1  0
  5  6  1  0
  6  7  1  0
  7  8  1  0
  8  9  1  0
  9 10  1  0
 10 11  1  0
 10 12  1  0
 10 13  1  0
 13 14  1  0
 13 15  1  0
 13 16  1  0
 16 17  1  0
 16 18  1  0
 16 19  1  0
 19 20  1  0
 19 21  1  0
 19 22  1  0
 22 23  1  0
 22 24  1  0
 22 25  1  0
 25 26  1  0
 25 27  1  0
 25 28  1  0
M  END
$$$$

     RDKit          2D

 23 24  0  0  0  0  0  0  0  0999 V2000
   -1.0981   -4.0981    0.0000 F   0  0  0  0  0  0  0  0  0  0  0  0
    0.2010   -3.3481    0.0000 C   0  0  0  0  0  0  0  0  0  0  0  0
    0.6143   -4.7900    0.0000 F   0  0  0  0  0  0  0  0  0  0  0  0
   -0.8411   -2.2691    0.0000 F   0  0  0  0  0  0  0  0  0  0  0  0
    1.5000   -2.5981    0.0000 C   0  0  0  0  0  0  0  0  0  0  0  0
    0.7500   -1.2990    0.0000 C   0  0  0  0  0  0  0  0  0  0  0  0
    1.5000    0.0000    0.0000 C   0  0  0  0  0  0  0  0  0  0  0  0
    0.7500    1.2990    0.0000 C   0  0  0  0  0  0  0  0  0  0  0  0
   -0.7500    1.2990    0.0000 C   0  0  0  0  0  0  0  0  0  0  0  0
   -1.5000    2.5981    0.0000 Br  0  0  0  0  0  0  0  0  0  0  0  0
   -1.5000    0.0000    0.0000 C   0  0  0  0  0  0  0  0  0  0  0  0
   -0.7500   -1.2990    0.0000 C   0  0  0  0  0  0  0  0  0  0  0  0
    2.2500   -3.8971    0.0000 C   0  0  0  0  0  0  0  0  0  0  0  0
    1.5000   -5.1962    0.0000 C   0  0  0  0  0  0  0  0  0  0  0  0
    2.2500   -6.4952    0.0000 C   0  0  0  0  0  0  0  0  0  0  0  0
    3.7500   -6.4952    0.0000 C   0  0  0  0  0  0  0  0  0  0  0  0
    4.5000   -7.7942    0.0000 Br  0  0  0  0  0  0  0  0  0  0  0  0
    4.5000   -5.1962    0.0000 C   0  0  0  0  0  0  0  0  0  0  0  0
    3.7500   -3.8971    0.0000 C   0  0  0  0  0  0  0  0  0  0  0  0
    2.7990   -1.8481    0.0000 C   0  0  0  0  0  0  0  0  0  0  0  0
    4.0981   -1.0981    0.0000 F   0  0  0  0  0  0  0  0  0  0  0  0
    3.8411   -2.9270    0.0000 F   0  0  0  0  0  0  0  0  0  0  0  0
    2.3857   -0.4062    0.0000 F   0  0  0  0  0  0  0  0  0  0  0  0
  1  2  1  0
  2  3  1  0
  2  4  1  0
  2  5  1  0
  5  6  1  0
  6  7  2  0
  7  8  1  0
  8  9  2  0
  9 10  1  0
  9 11  1  0
 11 12  2  0
  5 13  1  0
 13 14  2  0
 14 15  1  0
 15 16  2  0
 16 17  1  0
 16 18  1  0
 18 19  2  0
  5 20  1  0
 20 21  1  0
 20 22  1  0
 20 23  1  0
 12  6  1  0
 19 13  1  0
M  END
$$$$

     RDKit          2D

 17 18  0  0  0  0  0  0  0  0999 V2000
    2.3907    1.0037    0.0000 F   0  0  0  0  0  0  0  0  0  0  0  0
    1.2760    0.0000    0.0000 C   0  0  0  0  0  0  0  0  0  0  0  0
    2.3907   -1.0037    0.0000 F   0  0  0  0  0  0  0  0  0  0  0  0
    0.3943    1.2135    0.0000 O   0  0  0  0  0  0  0  0  0  0  0  0
   -1.0323    0.7500    0.0000 C   0  0  0  0  0  0  0  0  0  0  0  0
   -2.5241    0.5932    0.0000 F   0  0  0  0  0  0  0  0  0  0  0  0
   -1.3442    2.2172    0.0000 F   0  0  0  0  0  0  0  0  0  0  0  0
   -1.0323   -0.7500    0.0000 C   0  0  0  0  0  0  0  0  0  0  0  0
   -2.1470   -1.7537    0.0000 C   0  0  0  0  0  0  0  0  0  0  0  0
   -3.5736   -1.2902    0.0000 Cl  0  0  0  0  0  0  0  0  0  0  0  0
   -1.8351   -3.2209    0.0000 C   0  0  0  0  0  0  0  0  0  0  0  0
   -2.9499   -4.2246    0.0000 Cl  0  0  0  0  0  0  0  0  0  0  0  0
   -0.4086   -3.6844    0.0000 C   0  0  0  0  0  0  0  0  0  0  0  0
   -0.0967   -5.1517    0.0000 Cl  0  0  0  0  0  0  0  0  0  0  0  0
    0.7062   -2.6807    0.0000 C   0  0  0  0  0  0  0  0  0  0  0  0
    2.1328   -3.1443    0.0000 Cl  0  0  0  0  0  0  0  0  0  0  0  0
    0.3943   -1.2135    0.0000 C   0  0  0  0  0  0  0  0  0  0  0  0
  1  2  1  0
  2  3  1  0
  2  4  1  0
  4  5  1  0
  5  6  1  0
  5  7  1  0
  5  8  1  0
  8  9  2  0
  9 10  1  0
  9 11  1  0
 11 12  1  0
 11 13  2  0
 13 14  1  0
 13 15  1  0
 15 16  1  0
 15 17  2  0
 17  2  1  0
 17  8  1  0
M  END
$$$$

     RDKit          2D

 28 27  0  0  0  0  0  0  0  0999 V2000
    0.0000    0.0000    0.0000 C   0  0  0  0  0  0  0  0  0  0  0  0
    1.2990    0.7500    0.0000 C   0  0  0  0  0  0  0  0  0  0  0  0
    1.2990    2.2500    0.0000 O   0  0  0  0  0  0  0  0  0  0  0  0
    2.5981   -0.0000    0.0000 C   0  0  0  0  0  0  0  0  0  0  0  0
    3.3481    1.2990    0.0000 F   0  0  0  0  0  0  0  0  0  0  0  0
    1.8481   -1.2990    0.0000 F   0  0  0  0  0  0  0  0  0  0  0  0
    3.8971   -0.7500    0.0000 C   0  0  0  0  0  0  0  0  0  0  0  0
    3.1471   -2.0490    0.0000 F   0  0  0  0  0  0  0  0  0  0  0  0
    4.6471    0.5490    0.0000 F   0  0  0  0  0  0  0  0  0  0  0  0
    5.1962   -1.5000    0.0000 C   0  0  0  0  0  0  0  0  0  0  0  0
    5.9462   -0.2010    0.0000 F   0  0  0  0  0  0  0  0  0  0  0  0
    4.4462   -2.7990    0.0000 F   0  0  0  0  0  0  0  0  0  0  0  0
    6.4952   -2.2500    0.0000 C   0  0  0  0  0  0  0  0  0  0  0  0
    5.7452   -3.5490    0.0000 F   0  0  0  0  0  0  0  0  0  0  0  0
    7.2452   -0.9510    0.0000 F   0  0  0  0  0  0  0  0  0  0  0  0
    7.7942   -3.0000    0.0000 C   0  0  0  0  0  0  0  0  0  0  0  0
    8.5442   -1.7010    0.0000 F   0  0  0  0  0  0  0  0  0  0  0  0
    7.0442   -4.2990    0.0000 F   0  0  0  0  0  0  0  0  0  0  0  0
    9.0933   -3.7500    0.0000 C   0  0  0  0  0  0  0  0  0  0  0  0
    8.3433   -5.0490    0.0000 F   0  0  0  0  0  0  0  0  0  0  0  0
    9.8433   -2.4510    0.0000 F   0  0  0  0  0  0  0  0  0  0  0  0
   10.3923   -4.5000    0.0000 C   0  0  0  0  0  0  0  0  0  0  0  0
   11.1423   -3.2010    0.0000 F   0  0  0  0  0  0  0  0  0  0  0  0
    9.6423   -5.7990    0.0000 F   0  0  0  0  0  0  0  0  0  0  0  0
   11.6913   -5.2500    0.0000 C   0  0  0  0  0  0  0  0  0  0  0  0
   12.9904   -6.0000    0.0000 F   0  0  0  0  0  0  0  0  0  0  0  0
   10.9413   -6.5490    0.0000 F   0  0  0  0  0  0  0  0  0  0  0  0
   12.4413   -3.9510    0.0000 F   0  0  0  0  0  0  0  0  0  0  0  0
  1  2  1  0
  2  3  1  0
  2  4  1  0
  4  5  1  0
  4  6  1  0
  4  7  1  0
  7  8  1  0
  7  9  1  0
  7 10  1  0
 10 11  1  0
 10 12  1  0
 10 13  1  0
 13 14  1  0
 13 15  1  0
 13 16  1  0
 16 17  1  0
 16 18  1  0
 16 19  1  0
 19 20  1  0
 19 21  1  0
 19 22  1  0
 22 23  1  0
 22 24  1  0
 22 25  1  0
 25 26  1  0
 25 27  1  0
 25 28  1  0
M  END
$$$$

     RDKit          2D

 17 17  0  0  0  0  0  0  0  0999 V2000
    3.7500   -1.2990    0.0000 F   0  0  0  0  0  0  0  0  0  0  0  0
    3.0000    0.0000    0.0000 C   0  0  0  0  0  0  0  0  0  0  0  0
    3.7500    1.2990    0.0000 F   0  0  0  0  0  0  0  0  0  0  0  0
    1.5000    0.0000    0.0000 C   0  0  0  0  0  0  0  0  0  0  0  0
    0.7500   -1.2990    0.0000 C   0  0  0  0  0  0  0  0  0  0  0  0
   -0.7500   -1.2990    0.0000 C   0  0  0  0  0  0  0  0  0  0  0  0
   -0.4895   -2.7762    0.0000 F   0  0  0  0  0  0  0  0  0  0  0  0
   -2.1595   -1.8121    0.0000 F   0  0  0  0  0  0  0  0  0  0  0  0
   -1.5000    0.0000    0.0000 C   0  0  0  0  0  0  0  0  0  0  0  0
   -2.6491   -0.9642    0.0000 F   0  0  0  0  0  0  0  0  0  0  0  0
   -2.6491    0.9642    0.0000 F   0  0  0  0  0  0  0  0  0  0  0  0
   -0.7500    1.2990    0.0000 C   0  0  0  0  0  0  0  0  0  0  0  0
   -2.1595    1.8121    0.0000 F   0  0  0  0  0  0  0  0  0  0  0  0
   -0.4895    2.7762    0.0000 F   0  0  0  0  0  0  0  0  0  0  0  0
    0.7500    1.2990    0.0000 C   0  0  0  0  0  0  0  0  0  0  0  0
    0.4895    2.7762    0.0000 F   0  0  0  0  0  0  0  0  0  0  0  0
    2.1595    1.8121    0.0000 F   0  0  0  0  0  0  0  0  0  0  0  0
  1  2  1  0
  2  3  1  0
  2  4  1  0
  4  5  2  0
  5  6  1  0
  6  7  1  0
  6  8  1  0
  6  9  1  0
  9 10  1  0
  9 11  1  0
  9 12  1  0
 12 13  1  0
 12 14  1  0
 12 15  1  0
 15 16  1  0
 15 17  1  0
 15  4  1  0
M  END
$$$$

     RDKit          2D

 22 21  0  0  0  0  0  0  0  0999 V2000
    0.0000    0.0000    0.0000 C   0  0  0  0  0  0  0  0  0  0  0  0
    1.2990    0.7500    0.0000 C   0  0  0  0  0  0  0  0  0  0  0  0
    2.5981   -0.0000    0.0000 C   0  0  0  0  0  0  0  0  0  0  0  0
    3.8971    0.7500    0.0000 C   0  0  0  0  0  0  0  0  0  0  0  0
    5.1962   -0.0000    0.0000 C   0  0  0  0  0  0  0  0  0  0  0  0
    6.4952    0.7500    0.0000 C   0  0  0  0  0  0  0  0  0  0  0  0
    7.7942   -0.0000    0.0000 C   0  0  0  0  0  0  0  0  0  0  0  0
    7.7942   -1.5000    0.0000 I   0  0  0  0  0  0  0  0  0  0  0  0
    9.0933    0.7500    0.0000 C   0  0  0  0  0  0  0  0  0  0  0  0
   10.3923   -0.0000    0.0000 C   0  0  0  0  0  0  0  0  0  0  0  0
   11.1423    1.2990    0.0000 F   0  0  0  0  0  0  0  0  0  0  0  0
    9.6423   -1.2990    0.0000 F   0  0  0  0  0  0  0  0  0  0  0  0
   11.6913   -0.7500    0.0000 C   0  0  0  0  0  0  0  0  0  0  0  0
   10.9413   -2.0490    0.0000 F   0  0  0  0  0  0  0  0  0  0  0  0
   12.4413    0.5490    0.0000 F   0  0  0  0  0  0  0  0  0  0  0  0
   12.9904   -1.5000    0.0000 C   0  0  0  0  0  0  0  0  0  0  0  0
   13.7404   -0.2010    0.0000 F   0  0  0  0  0  0  0  0  0  0  0  0
   12.2404   -2.7990    0.0000 F   0  0  0  0  0  0  0  0  0  0  0  0
   14.2894   -2.2500    0.0000 C   0  0  0  0  0  0  0  0  0  0  0  0
   15.5885   -3.0000    0.0000 F   0  0  0  0  0  0  0  0  0  0  0  0
   13.5394   -3.5490    0.0000 F   0  0  0  0  0  0  0  0  0  0  0  0
   15.0394   -0.9510    0.0000 Cl  0  0  0  0  0  0  0  0  0  0  0  0
  1  2  1  0
  2  3  1  0
  3  4  1  0
  4  5  1  0
  5  6  1  0
  6  7  1  0
  7  8  1  0
  7  9  1  0
  9 10  1  0
 10 11  1  0
 10 12  1  0
 10 13  1  0
 13 14  1  0
 13 15  1  0
 13 16  1  0
 16 17  1  0
 16 18  1  0
 16 19  1  0
 19 20  1  0
 19 21  1  0
 19 22  1  0
M  END
$$$$

     RDKit          2D

 27 28  0  0  0  0  0  0  0  0999 V2000
    3.7500    1.2990    0.0000 O   0  0  0  0  0  0  0  0  0  0  0  0
    3.0000    0.0000    0.0000 N   0  0  0  0  0  0  0  0  0  0  0  0
    3.7500   -1.2990    0.0000 O   0  0  0  0  0  0  0  0  0  0  0  0
    1.5000    0.0000    0.0000 C   0  0  0  0  0  0  0  0  0  0  0  0
    0.7500   -1.2990    0.0000 C   0  0  0  0  0  0  0  0  0  0  0  0
   -0.7500   -1.2990    0.0000 C   0  0  0  0  0  0  0  0  0  0  0  0
   -1.5000    0.0000    0.0000 C   0  0  0  0  0  0  0  0  0  0  0  0
   -0.7500    1.2990    0.0000 C   0  0  0  0  0  0  0  0  0  0  0  0
   -1.5000    2.5981    0.0000 C   0  0  0  0  0  0  0  0  0  0  0  0
   -2.2500    3.8971    0.0000 C   0  0  0  0  0  0  0  0  0  0  0  0
   -1.5000    5.1962    0.0000 C   0  0  0  0  0  0  0  0  0  0  0  0
   -2.2500    6.4952    0.0000 C   0  0  0  0  0  0  0  0  0  0  0  0
   -3.7500    6.4952    0.0000 C   0  0  0  0  0  0  0  0  0  0  0  0
   -4.5000    5.1962    0.0000 C   0  0  0  0  0  0  0  0  0  0  0  0
   -6.0000    5.1962    0.0000 N   0  0  0  0  0  0  0  0  0  0  0  0
   -6.7500    3.8971    0.0000 O   0  0  0  0  0  0  0  0  0  0  0  0
   -6.7500    6.4952    0.0000 O   0  0  0  0  0  0  0  0  0  0  0  0
   -3.7500    3.8971    0.0000 C   0  0  0  0  0  0  0  0  0  0  0  0
   -0.2010    3.3481    0.0000 C   0  0  0  0  0  0  0  0  0  0  0  0
    1.0981    4.0981    0.0000 F   0  0  0  0  0  0  0  0  0  0  0  0
    0.8411    2.2691    0.0000 F   0  0  0  0  0  0  0  0  0  0  0  0
   -0.6143    4.7900    0.0000 F   0  0  0  0  0  0  0  0  0  0  0  0
   -2.7990    1.8481    0.0000 C   0  0  0  0  0  0  0  0  0  0  0  0
   -4.0981    1.0981    0.0000 F   0  0  0  0  0  0  0  0  0  0  0  0
   -3.8411    2.9270    0.0000 F   0  0  0  0  0  0  0  0  0  0  0  0
   -2.3857    0.4062    0.0000 F   0  0  0  0  0  0  0  0  0  0  0  0
    0.7500    1.2990    0.0000 C   0  0  0  0  0  0  0  0  0  0  0  0
  1  2  2  0
  2  3  1  0
  2  4  1  0
  4  5  2  0
  5  6  1  0
  6  7  2  0
  7  8  1  0
  8  9  1  0
  9 10  1  0
 10 11  2  0
 11 12  1  0
 12 13  2  0
 13 14  1  0
 14 15  1  0
 15 16  2  0
 15 17  1  0
 14 18  2  0
  9 19  1  0
 19 20  1  0
 19 21  1  0
 19 22  1  0
  9 23  1  0
 23 24  1  0
 23 25  1  0
 23 26  1  0
  8 27  2  0
 27  4  1  0
 18 10  1  0
M  CHG  4   2   1   3  -1  15   1  17  -1
M  END
$$$$

     RDKit          2D

 13 13  0  0  0  0  0  0  0  0999 V2000
    2.7760    0.0000    0.0000 N   0  0  0  0  0  0  0  0  0  0  0  0
    1.2760    0.0000    0.0000 C   0  0  0  0  0  0  0  0  0  0  0  0
    0.3943    1.2135    0.0000 C   0  0  0  0  0  0  0  0  0  0  0  0
   -1.0323    0.7500    0.0000 C   0  0  0  0  0  0  0  0  0  0  0  0
   -2.2458    1.6317    0.0000 C   0  0  0  0  0  0  0  0  0  0  0  0
   -1.3641    2.8452    0.0000 F   0  0  0  0  0  0  0  0  0  0  0  0
   -3.1275    0.4182    0.0000 F   0  0  0  0  0  0  0  0  0  0  0  0
   -3.4593    2.5134    0.0000 C   0  0  0  0  0  0  0  0  0  0  0  0
   -4.6729    3.3950    0.0000 F   0  0  0  0  0  0  0  0  0  0  0  0
   -4.3410    1.2998    0.0000 F   0  0  0  0  0  0  0  0  0  0  0  0
   -2.5777    3.7269    0.0000 F   0  0  0  0  0  0  0  0  0  0  0  0
   -1.0323   -0.7500    0.0000 O   0  0  0  0  0  0  0  0  0  0  0  0
    0.3943   -1.2135    0.0000 N   0  0  0  0  0  0  0  0  0  0  0  0
  1  2  1  0
  2  3  1  0
  3  4  2  0
  4  5  1  0
  5  6  1  0
  5  7  1  0
  5  8  1  0
  8  9  1  0
  8 10  1  0
  8 11  1  0
  4 12  1  0
 12 13  1  0
 13  2  2  0
M  END
$$$$

     RDKit          2D

 16 16  0  0  0  0  0  0  0  0999 V2000
    3.7500    1.2990    0.0000 O   0  0  0  0  0  0  0  0  0  0  0  0
    3.0000    0.0000    0.0000 N   0  0  0  0  0  0  0  0  0  0  0  0
    3.7500   -1.2990    0.0000 O   0  0  0  0  0  0  0  0  0  0  0  0
    1.5000    0.0000    0.0000 C   0  0  0  0  0  0  0  0  0  0  0  0
    0.7500   -1.2990    0.0000 C   0  0  0  0  0  0  0  0  0  0  0  0
   -0.7500   -1.2990    0.0000 C   0  0  0  0  0  0  0  0  0  0  0  0
   -1.5000    0.0000    0.0000 C   0  0  0  0  0  0  0  0  0  0  0  0
   -3.0000    0.0000    0.0000 C   0  0  0  0  0  0  0  0  0  0  0  0
   -3.0000    1.5000    0.0000 F   0  0  0  0  0  0  0  0  0  0  0  0
   -3.0000   -1.5000    0.0000 F   0  0  0  0  0  0  0  0  0  0  0  0
   -4.5000    0.0000    0.0000 C   0  0  0  0  0  0  0  0  0  0  0  0
   -6.0000    0.0000    0.0000 F   0  0  0  0  0  0  0  0  0  0  0  0
   -4.5000   -1.5000    0.0000 F   0  0  0  0  0  0  0  0  0  0  0  0
   -4.5000    1.5000    0.0000 F   0  0  0  0  0  0  0  0  0  0  0  0
   -0.7500    1.2990    0.0000 C   0  0  0  0  0  0  0  0  0  0  0  0
    0.7500    1.2990    0.0000 C   0  0  0  0  0  0  0  0  0  0  0  0
  1  2  2  0
  2  3  1  0
  2  4  1  0
  4  5  2  0
  5  6  1  0
  6  7  2  0
  7  8  1  0
  8  9  1  0
  8 10  1  0
  8 11  1  0
 11 12  1  0
 11 13  1  0
 11 14  1  0
  7 15  1  0
 15 16  2  0
 16  4  1  0
M  CHG  2   2   1   3  -1
M  END
$$$$

     RDKit          2D

 33 32  0  0  0  0  0  0  0  0999 V2000
    0.0000    0.0000    0.0000 C   0  0  0  0  0  0  0  0  0  0  0  0
    1.2990    0.7500    0.0000 O   0  0  0  0  0  0  0  0  0  0  0  0
    2.5981   -0.0000    0.0000 C   0  0  0  0  0  0  0  0  0  0  0  0
    2.5981   -1.5000    0.0000 O   0  0  0  0  0  0  0  0  0  0  0  0
    3.8971    0.7500    0.0000 C   0  0  0  0  0  0  0  0  0  0  0  0
    4.6471   -0.5490    0.0000 F   0  0  0  0  0  0  0  0  0  0  0  0
    3.1471    2.0490    0.0000 F   0  0  0  0  0  0  0  0  0  0  0  0
    5.1962    1.5000    0.0000 O   0  0  0  0  0  0  0  0  0  0  0  0
    5.1962    3.0000    0.0000 C   0  0  0  0  0  0  0  0  0  0  0  0
    3.6962    3.0000    0.0000 F   0  0  0  0  0  0  0  0  0  0  0  0
    6.6962    3.0000    0.0000 F   0  0  0  0  0  0  0  0  0  0  0  0
    5.1962    4.5000    0.0000 C   0  0  0  0  0  0  0  0  0  0  0  0
    6.6962    4.5000    0.0000 F   0  0  0  0  0  0  0  0  0  0  0  0
    3.6962    4.5000    0.0000 F   0  0  0  0  0  0  0  0  0  0  0  0
    5.1962    6.0000    0.0000 C   0  0  0  0  0  0  0  0  0  0  0  0
    3.6962    6.0000    0.0000 F   0  0  0  0  0  0  0  0  0  0  0  0
    6.6962    6.0000    0.0000 F   0  0  0  0  0  0  0  0  0  0  0  0
    5.1962    7.5000    0.0000 C   0  0  0  0  0  0  0  0  0  0  0  0
    6.6962    7.5000    0.0000 F   0  0  0  0  0  0  0  0  0  0  0  0
    3.6962    7.5000    0.0000 F   0  0  0  0  0  0  0  0  0  0  0  0
    5.1962    9.0000    0.0000 C   0  0  0  0  0  0  0  0  0  0  0  0
    6.6962    9.0000    0.0000 F   0  0  0  0  0  0  0  0  0  0  0  0
    3.6962    9.0000    0.0000 F   0  0  0  0  0  0  0  0  0  0  0  0
    5.1962   10.5000    0.0000 C   0  0  0  0  0  0  0  0  0  0  0  0
    3.6962   10.5000    0.0000 F   0  0  0  0  0  0  0  0  0  0  0  0
    6.6962   10.5000    0.0000 F   0  0  0  0  0  0  0  0  0  0  0  0
    5.1962   12.0000    0.0000 C   0  0  0  0  0  0  0  0  0  0  0  0
    6.6962   12.0000    0.0000 F   0  0  0  0  0  0  0  0  0  0  0  0
    3.6962   12.0000    0.0000 F   0  0  0  0  0  0  0  0  0  0  0  0
    5.1962   13.5000    0.0000 C   0  0  0  0  0  0  0  0  0  0  0  0
    5.1962   15.0000    0.0000 F   0  0  0  0  0  0  0  0  0  0  0  0
    3.6962   13.5000    0.0000 F   0  0  0  0  0  0  0  0  0  0  0  0
    6.6962   13.5000    0.0000 F   0  0  0  0  0  0  0  0  0  0  0  0
  1  2  1  0
  2  3  1  0
  3  4  2  0
  3  5  1  0
  5  6  1  0
  5  7  1  0
  5  8  1  0
  8  9  1  0
  9 10  1  0
  9 11  1  0
  9 12  1  0
 12 13  1  0
 12 14  1  0
 12 15  1  0
 15 16  1  0
 15 17  1  0
 15 18  1  0
 18 19  1  0
 18 20  1  0
 18 21  1  0
 21 22  1  0
 21 23  1  0
 21 24  1  0
 24 25  1  0
 24 26  1  0
 24 27  1  0
 27 28  1  0
 27 29  1  0
 27 30  1  0
 30 31  1  0
 30 32  1  0
 30 33  1  0
M  END
$$$$

     RDKit          2D

 23 22  0  0  0  0  0  0  0  0999 V2000
   -1.4888   -1.3172    0.0000 O   0  0  0  0  0  0  0  0  0  0  0  0
   -0.0000   -1.5000    0.0000 P   0  0  0  0  0  0  0  0  0  0  0  0
    0.7912   -1.5972    0.0000 O   0  0  0  0  0  0  0  0  0  0  0  0
   -0.0000    0.0000    0.0000 C   0  0  0  0  0  0  0  0  0  0  0  0
   -1.5000    0.0000    0.0000 F   0  0  0  0  0  0  0  0  0  0  0  0
    0.0000    1.5000    0.0000 F   0  0  0  0  0  0  0  0  0  0  0  0
    1.5000    0.0000    0.0000 C   0  0  0  0  0  0  0  0  0  0  0  0
    1.5000    1.5000    0.0000 F   0  0  0  0  0  0  0  0  0  0  0  0
    1.6080   -0.8791    0.0000 F   0  0  0  0  0  0  0  0  0  0  0  0
    3.0000   -0.0000    0.0000 C   0  0  0  0  0  0  0  0  0  0  0  0
    4.5000   -0.0000    0.0000 F   0  0  0  0  0  0  0  0  0  0  0  0
    3.0000    1.5000    0.0000 F   0  0  0  0  0  0  0  0  0  0  0  0
    3.0000   -1.5000    0.0000 F   0  0  0  0  0  0  0  0  0  0  0  0
   -0.0000   -3.0000    0.0000 C   0  0  0  0  0  0  0  0  0  0  0  0
    1.5000   -3.0000    0.0000 F   0  0  0  0  0  0  0  0  0  0  0  0
   -0.0000   -4.5000    0.0000 F   0  0  0  0  0  0  0  0  0  0  0  0
   -1.5000   -3.0000    0.0000 C   0  0  0  0  0  0  0  0  0  0  0  0
   -1.6828   -1.5112    0.0000 F   0  0  0  0  0  0  0  0  0  0  0  0
   -1.5000   -4.5000    0.0000 F   0  0  0  0  0  0  0  0  0  0  0  0
   -3.0000   -3.0000    0.0000 C   0  0  0  0  0  0  0  0  0  0  0  0
   -4.5000   -3.0000    0.0000 F   0  0  0  0  0  0  0  0  0  0  0  0
   -3.0000   -4.5000    0.0000 F   0  0  0  0  0  0  0  0  0  0  0  0
   -3.0000   -1.5000    0.0000 F   0  0  0  0  0  0  0  0  0  0  0  0
  1  2  2  0
  2  3  1  0
  2  4  1  0
  4  5  1  0
  4  6  1  0
  4  7  1  0
  7  8  1  0
  7  9  1  0
  7 10  1  0
 10 11  1  0
 10 12  1  0
 10 13  1  0
  2 14  1  0
 14 15  1  0
 14 16  1  0
 14 17  1  0
 17 18  1  0
 17 19  1  0
 17 20  1  0
 20 21  1  0
 20 22  1  0
 20 23  1  0
M  END
$$$$

     RDKit          2D

 17 16  0  0  0  0  0  0  0  0999 V2000
   -1.5000    0.0000    0.0000 F   0  0  0  0  0  0  0  0  0  0  0  0
    0.0000    0.0000    0.0000 C   0  0  0  0  0  0  0  0  0  0  0  0
    0.0000    1.5000    0.0000 Cl  0  0  0  0  0  0  0  0  0  0  0  0
   -0.0000   -1.5000    0.0000 Br  0  0  0  0  0  0  0  0  0  0  0  0
    1.5000    0.0000    0.0000 C   0  0  0  0  0  0  0  0  0  0  0  0
    1.5000    1.5000    0.0000 F   0  0  0  0  0  0  0  0  0  0  0  0
    1.5000   -1.5000    0.0000 F   0  0  0  0  0  0  0  0  0  0  0  0
    3.0000    0.0000    0.0000 C   0  0  0  0  0  0  0  0  0  0  0  0
    3.0000   -1.5000    0.0000 F   0  0  0  0  0  0  0  0  0  0  0  0
    3.0000    1.5000    0.0000 Cl  0  0  0  0  0  0  0  0  0  0  0  0
    4.5000    0.0000    0.0000 C   0  0  0  0  0  0  0  0  0  0  0  0
    4.5000   -1.5000    0.0000 F   0  0  0  0  0  0  0  0  0  0  0  0
    4.5000    1.5000    0.0000 F   0  0  0  0  0  0  0  0  0  0  0  0
    6.0000    0.0000    0.0000 C   0  0  0  0  0  0  0  0  0  0  0  0
    7.5000    0.0000    0.0000 Cl  0  0  0  0  0  0  0  0  0  0  0  0
    6.0000    1.5000    0.0000 Cl  0  0  0  0  0  0  0  0  0  0  0  0
    6.0000   -1.5000    0.0000 Cl  0  0  0  0  0  0  0  0  0  0  0  0
  1  2  1  0
  2  3  1  0
  2  4  1  0
  2  5  1  0
  5  6  1  0
  5  7  1  0
  5  8  1  0
  8  9  1  0
  8 10  1  0
  8 11  1  0
 11 12  1  0
 11 13  1  0
 11 14  1  0
 14 15  1  0
 14 16  1  0
 14 17  1  0
M  END
$$$$

     RDKit          2D

 23 22  0  0  0  0  0  0  0  0999 V2000
   -1.5000    0.0000    0.0000 F   0  0  0  0  0  0  0  0  0  0  0  0
    0.0000    0.0000    0.0000 C   0  0  0  0  0  0  0  0  0  0  0  0
    0.0000    1.5000    0.0000 F   0  0  0  0  0  0  0  0  0  0  0  0
   -0.0000   -1.5000    0.0000 F   0  0  0  0  0  0  0  0  0  0  0  0
    1.5000    0.0000    0.0000 C   0  0  0  0  0  0  0  0  0  0  0  0
    1.5000    1.5000    0.0000 F   0  0  0  0  0  0  0  0  0  0  0  0
    1.5000   -1.5000    0.0000 F   0  0  0  0  0  0  0  0  0  0  0  0
    3.0000    0.0000    0.0000 C   0  0  0  0  0  0  0  0  0  0  0  0
    3.0000   -1.5000    0.0000 F   0  0  0  0  0  0  0  0  0  0  0  0
    3.0000    1.5000    0.0000 F   0  0  0  0  0  0  0  0  0  0  0  0
    4.5000    0.0000    0.0000 C   0  0  0  0  0  0  0  0  0  0  0  0
    4.5000   -1.5000    0.0000 F   0  0  0  0  0  0  0  0  0  0  0  0
    4.5000    1.5000    0.0000 F   0  0  0  0  0  0  0  0  0  0  0  0
    6.0000    0.0000    0.0000 C   0  0  0  0  0  0  0  0  0  0  0  0
    6.0000    1.5000    0.0000 F   0  0  0  0  0  0  0  0  0  0  0  0
    6.0000   -1.5000    0.0000 F   0  0  0  0  0  0  0  0  0  0  0  0
    7.5000    0.0000    0.0000 C   0  0  0  0  0  0  0  0  0  0  0  0
    7.5000   -1.5000    0.0000 F   0  0  0  0  0  0  0  0  0  0  0  0
    7.5000    1.5000    0.0000 F   0  0  0  0  0  0  0  0  0  0  0  0
    9.0000    0.0000    0.0000 C   0  0  0  0  0  0  0  0  0  0  0  0
   10.5000    0.0000    0.0000 Cl  0  0  0  0  0  0  0  0  0  0  0  0
    9.0000    1.5000    0.0000 Cl  0  0  0  0  0  0  0  0  0  0  0  0
    9.0000   -1.5000    0.0000 Cl  0  0  0  0  0  0  0  0  0  0  0  0
  1  2  1  0
  2  3  1  0
  2  4  1  0
  2  5  1  0
  5  6  1  0
  5  7  1  0
  5  8  1  0
  8  9  1  0
  8 10  1  0
  8 11  1  0
 11 12  1  0
 11 13  1  0
 11 14  1  0
 14 15  1  0
 14 16  1  0
 14 17  1  0
 17 18  1  0
 17 19  1  0
 17 20  1  0
 20 21  1  0
 20 22  1  0
 20 23  1  0
M  END
$$$$

     RDKit          2D

 27 26  0  0  0  0  0  0  0  0999 V2000
   -1.2990    0.7500    0.0000 O   0  0  0  0  0  0  0  0  0  0  0  0
    0.0000    0.0000    0.0000 C   0  0  0  0  0  0  0  0  0  0  0  0
    1.2990    0.7500    0.0000 C   0  0  0  0  0  0  0  0  0  0  0  0
    1.2990    2.2500    0.0000 O   0  0  0  0  0  0  0  0  0  0  0  0
    2.5981   -0.0000    0.0000 C   0  0  0  0  0  0  0  0  0  0  0  0
    3.8971    0.7500    0.0000 O   0  0  0  0  0  0  0  0  0  0  0  0
    5.1962   -0.0000    0.0000 C   0  0  0  0  0  0  0  0  0  0  0  0
    6.4952    0.7500    0.0000 C   0  0  0  0  0  0  0  0  0  0  0  0
    7.7942   -0.0000    0.0000 C   0  0  0  0  0  0  0  0  0  0  0  0
    8.5442    1.2990    0.0000 F   0  0  0  0  0  0  0  0  0  0  0  0
    7.0442   -1.2990    0.0000 F   0  0  0  0  0  0  0  0  0  0  0  0
    9.0933   -0.7500    0.0000 C   0  0  0  0  0  0  0  0  0  0  0  0
    8.3433   -2.0490    0.0000 F   0  0  0  0  0  0  0  0  0  0  0  0
    9.8433    0.5490    0.0000 F   0  0  0  0  0  0  0  0  0  0  0  0
   10.3923   -1.5000    0.0000 C   0  0  0  0  0  0  0  0  0  0  0  0
   11.1423   -0.2010    0.0000 F   0  0  0  0  0  0  0  0  0  0  0  0
    9.6423   -2.7990    0.0000 F   0  0  0  0  0  0  0  0  0  0  0  0
   11.6913   -2.2500    0.0000 C   0  0  0  0  0  0  0  0  0  0  0  0
   10.9413   -3.5490    0.0000 F   0  0  0  0  0  0  0  0  0  0  0  0
   12.4413   -0.9510    0.0000 F   0  0  0  0  0  0  0  0  0  0  0  0
   12.9904   -3.0000    0.0000 C   0  0  0  0  0  0  0  0  0  0  0  0
   13.7404   -1.7010    0.0000 F   0  0  0  0  0  0  0  0  0  0  0  0
   12.2404   -4.2990    0.0000 F   0  0  0  0  0  0  0  0  0  0  0  0
   14.2894   -3.7500    0.0000 C   0  0  0  0  0  0  0  0  0  0  0  0
   15.5885   -4.5000    0.0000 F   0  0  0  0  0  0  0  0  0  0  0  0
   13.5394   -5.0490    0.0000 F   0  0  0  0  0  0  0  0  0  0  0  0
   15.0394   -2.4510    0.0000 F   0  0  0  0  0  0  0  0  0  0  0  0
  1  2  1  0
  2  3  1  0
  3  4  1  0
  3  5  1  0
  5  6  1  0
  6  7  1  0
  7  8  1  0
  8  9  1  0
  9 10  1  0
  9 11  1  0
  9 12  1  0
 12 13  1  0
 12 14  1  0
 12 15  1  0
 15 16  1  0
 15 17  1  0
 15 18  1  0
 18 19  1  0
 18 20  1  0
 18 21  1  0
 21 22  1  0
 21 23  1  0
 21 24  1  0
 24 25  1  0
 24 26  1  0
 24 27  1  0
M  END
$$$$

     RDKit          2D

 44 43  0  0  0  0  0  0  0  0999 V2000
   -1.2990    0.7500    0.0000 O   0  0  0  0  0  0  0  0  0  0  0  0
    0.0000    0.0000    0.0000 C   0  0  0  0  0  0  0  0  0  0  0  0
   -0.0000   -1.5000    0.0000 O   0  0  0  0  0  0  0  0  0  0  0  0
   -1.2990   -2.2500    0.0000 O   0  0  0  0  0  0  0  0  0  0  0  0
   -1.2990   -3.7500    0.0000 C   0  0  0  0  0  0  0  0  0  0  0  0
   -0.0000   -4.5000    0.0000 O   0  0  0  0  0  0  0  0  0  0  0  0
   -2.5981   -4.5000    0.0000 C   0  0  0  0  0  0  0  0  0  0  0  0
   -1.8481   -5.7990    0.0000 F   0  0  0  0  0  0  0  0  0  0  0  0
   -3.3481   -3.2010    0.0000 F   0  0  0  0  0  0  0  0  0  0  0  0
   -3.8971   -5.2500    0.0000 C   0  0  0  0  0  0  0  0  0  0  0  0
   -4.6471   -3.9510    0.0000 F   0  0  0  0  0  0  0  0  0  0  0  0
   -3.1471   -6.5490    0.0000 F   0  0  0  0  0  0  0  0  0  0  0  0
   -5.1962   -6.0000    0.0000 C   0  0  0  0  0  0  0  0  0  0  0  0
   -4.4462   -7.2990    0.0000 F   0  0  0  0  0  0  0  0  0  0  0  0
   -5.9462   -4.7010    0.0000 F   0  0  0  0  0  0  0  0  0  0  0  0
   -6.4952   -6.7500    0.0000 C   0  0  0  0  0  0  0  0  0  0  0  0
   -7.2452   -5.4510    0.0000 F   0  0  0  0  0  0  0  0  0  0  0  0
   -5.7452   -8.0490    0.0000 F   0  0  0  0  0  0  0  0  0  0  0  0
   -7.7942   -7.5000    0.0000 C   0  0  0  0  0  0  0  0  0  0  0  0
   -7.0442   -8.7990    0.0000 F   0  0  0  0  0  0  0  0  0  0  0  0
   -8.5442   -6.2010    0.0000 F   0  0  0  0  0  0  0  0  0  0  0  0
   -9.0933   -8.2500    0.0000 C   0  0  0  0  0  0  0  0  0  0  0  0
  -10.3923   -9.0000    0.0000 F   0  0  0  0  0  0  0  0  0  0  0  0
   -9.8433   -6.9510    0.0000 F   0  0  0  0  0  0  0  0  0  0  0  0
   -8.3433   -9.5490    0.0000 F   0  0  0  0  0  0  0  0  0  0  0  0
    1.2990    0.7500    0.0000 C   0  0  0  0  0  0  0  0  0  0  0  0
    2.0490   -0.5490    0.0000 F   0  0  0  0  0  0  0  0  0  0  0  0
    0.5490    2.0490    0.0000 F   0  0  0  0  0  0  0  0  0  0  0  0
    2.5981    1.5000    0.0000 C   0  0  0  0  0  0  0  0  0  0  0  0
    1.8481    2.7990    0.0000 F   0  0  0  0  0  0  0  0  0  0  0  0
    3.3481    0.2010    0.0000 F   0  0  0  0  0  0  0  0  0  0  0  0
    3.8971    2.2500    0.0000 C   0  0  0  0  0  0  0  0  0  0  0  0
    4.6471    0.9510    0.0000 F   0  0  0  0  0  0  0  0  0  0  0  0
    3.1471    3.5490    0.0000 F   0  0  0  0  0  0  0  0  0  0  0  0
    5.1962    3.0000    0.0000 C   0  0  0  0  0  0  0  0  0  0  0  0
    4.4462    4.2990    0.0000 F   0  0  0  0  0  0  0  0  0  0  0  0
    5.9462    1.7010    0.0000 F   0  0  0  0  0  0  0  0  0  0  0  0
    6.4952    3.7500    0.0000 C   0  0  0  0  0  0  0  0  0  0  0  0
    7.2452    2.4510    0.0000 F   0  0  0  0  0  0  0  0  0  0  0  0
    5.7452    5.0490    0.0000 F   0  0  0  0  0  0  0  0  0  0  0  0
    7.7942    4.5000    0.0000 C   0  0  0  0  0  0  0  0  0  0  0  0
    9.0933    5.2500    0.0000 F   0  0  0  0  0  0  0  0  0  0  0  0
    7.0442    5.7990    0.0000 F   0  0  0  0  0  0  0  0  0  0  0  0
    8.5442    3.2010    0.0000 F   0  0  0  0  0  0  0  0  0  0  0  0
  1  2  2  0
  2  3  1  0
  3  4  1  0
  4  5  1  0
  5  6  2  0
  5  7  1  0
  7  8  1  0
  7  9  1  0
  7 10  1  0
 10 11  1  0
 10 12  1  0
 10 13  1  0
 13 14  1  0
 13 15  1  0
 13 16  1  0
 16 17  1  0
 16 18  1  0
 16 19  1  0
 19 20  1  0
 19 21  1  0
 19 22  1  0
 22 23  1  0
 22 24  1  0
 22 25  1  0
  2 26  1  0
 26 27  1  0
 26 28  1  0
 26 29  1  0
 29 30  1  0
 29 31  1  0
 29 32  1  0
 32 33  1  0
 32 34  1  0
 32 35  1  0
 35 36  1  0
 35 37  1  0
 35 38  1  0
 38 39  1  0
 38 40  1  0
 38 41  1  0
 41 42  1  0
 41 43  1  0
 41 44  1  0
M  END
$$$$

     RDKit          2D

 22 21  0  0  0  0  0  0  0  0999 V2000
   -0.0000   -1.5000    0.0000 N   0  0  0  0  0  0  0  0  0  0  0  0
    0.0000    0.0000    0.0000 C   0  0  0  0  0  0  0  0  0  0  0  0
    0.0000    1.5000    0.0000 C   0  0  0  0  0  0  0  0  0  0  0  0
    1.5000    1.5000    0.0000 F   0  0  0  0  0  0  0  0  0  0  0  0
   -1.5000    1.5000    0.0000 F   0  0  0  0  0  0  0  0  0  0  0  0
    0.0000    3.0000    0.0000 C   0  0  0  0  0  0  0  0  0  0  0  0
   -1.5000    3.0000    0.0000 F   0  0  0  0  0  0  0  0  0  0  0  0
    1.5000    3.0000    0.0000 F   0  0  0  0  0  0  0  0  0  0  0  0
    0.0000    4.5000    0.0000 C   0  0  0  0  0  0  0  0  0  0  0  0
    1.5000    4.5000    0.0000 F   0  0  0  0  0  0  0  0  0  0  0  0
   -1.5000    4.5000    0.0000 F   0  0  0  0  0  0  0  0  0  0  0  0
    0.0000    6.0000    0.0000 C   0  0  0  0  0  0  0  0  0  0  0  0
    1.5000    6.0000    0.0000 F   0  0  0  0  0  0  0  0  0  0  0  0
   -1.5000    6.0000    0.0000 F   0  0  0  0  0  0  0  0  0  0  0  0
    0.0000    7.5000    0.0000 C   0  0  0  0  0  0  0  0  0  0  0  0
   -1.5000    7.5000    0.0000 F   0  0  0  0  0  0  0  0  0  0  0  0
    1.5000    7.5000    0.0000 F   0  0  0  0  0  0  0  0  0  0  0  0
    0.0000    9.0000    0.0000 C   0  0  0  0  0  0  0  0  0  0  0  0
    1.5000    9.0000    0.0000 F   0  0  0  0  0  0  0  0  0  0  0  0
   -1.5000    9.0000    0.0000 F   0  0  0  0  0  0  0  0  0  0  0  0
    0.0000   10.5000    0.0000 C   0  0  0  0  0  0  0  0  0  0  0  0
    0.0000   12.0000    0.0000 N   0  0  0  0  0  0  0  0  0  0  0  0
  1  2  3  0
  2  3  1  0
  3  4  1  0
  3  5  1  0
  3  6  1  0
  6  7  1  0
  6  8  1  0
  6  9  1  0
  9 10  1  0
  9 11  1  0
  9 12  1  0
 12 13  1  0
 12 14  1  0
 12 15  1  0
 15 16  1  0
 15 17  1  0
 15 18  1  0
 18 19  1  0
 18 20  1  0
 18 21  1  0
 21 22  3  0
M  END
$$$$

     RDKit          2D

 18 18  0  0  0  0  0  0  0  0999 V2000
    2.7760    0.0000    0.0000 O   0  0  0  0  0  0  0  0  0  0  0  0
    1.2760    0.0000    0.0000 C   0  0  0  0  0  0  0  0  0  0  0  0
    0.3943    1.2135    0.0000 C   0  0  0  0  0  0  0  0  0  0  0  0
   -1.0323    0.7500    0.0000 C   0  0  0  0  0  0  0  0  0  0  0  0
   -1.0323   -0.7500    0.0000 C   0  0  0  0  0  0  0  0  0  0  0  0
    0.3943   -1.2135    0.0000 C   0  0  0  0  0  0  0  0  0  0  0  0
    0.8578   -2.6401    0.0000 C   0  0  0  0  0  0  0  0  0  0  0  0
    2.3250   -2.9520    0.0000 O   0  0  0  0  0  0  0  0  0  0  0  0
   -0.1459   -3.7548    0.0000 C   0  0  0  0  0  0  0  0  0  0  0  0
    0.9688   -4.7585    0.0000 F   0  0  0  0  0  0  0  0  0  0  0  0
   -1.2606   -2.7511    0.0000 F   0  0  0  0  0  0  0  0  0  0  0  0
   -1.1496   -4.8695    0.0000 C   0  0  0  0  0  0  0  0  0  0  0  0
   -2.2643   -3.8658    0.0000 F   0  0  0  0  0  0  0  0  0  0  0  0
   -0.0349   -5.8732    0.0000 F   0  0  0  0  0  0  0  0  0  0  0  0
   -2.1533   -5.9843    0.0000 C   0  0  0  0  0  0  0  0  0  0  0  0
   -3.1570   -7.0990    0.0000 F   0  0  0  0  0  0  0  0  0  0  0  0
   -1.0385   -6.9880    0.0000 F   0  0  0  0  0  0  0  0  0  0  0  0
   -3.2680   -4.9806    0.0000 F   0  0  0  0  0  0  0  0  0  0  0  0
  1  2  2  0
  2  3  1  0
  3  4  1  0
  4  5  1  0
  5  6  1  0
  6  7  1  0
  7  8  2  0
  7  9  1  0
  9 10  1  0
  9 11  1  0
  9 12  1  0
 12 13  1  0
 12 14  1  0
 12 15  1  0
 15 16  1  0
 15 17  1  0
 15 18  1  0
  6  2  1  0
M  END
$$$$

     RDKit          2D

 15 14  0  0  0  0  0  0  0  0999 V2000
   -4.0981   -1.0981    0.0000 O   0  0  0  0  0  0  0  0  0  0  0  0
   -3.3481    0.2010    0.0000 S   0  0  0  0  0  0  0  0  0  0  0  0
   -2.7114   -0.2788    0.0000 O   0  0  0  0  0  0  0  0  0  0  0  0
   -4.6471    0.9510    0.0000 F   0  0  0  0  0  0  0  0  0  0  0  0
   -2.5981    1.5000    0.0000 C   0  0  0  0  0  0  0  0  0  0  0  0
   -3.8971    2.2500    0.0000 F   0  0  0  0  0  0  0  0  0  0  0  0
   -1.8481    2.7990    0.0000 F   0  0  0  0  0  0  0  0  0  0  0  0
   -1.2990    0.7500    0.0000 C   0  0  0  0  0  0  0  0  0  0  0  0
   -1.6451   -0.0653    0.0000 F   0  0  0  0  0  0  0  0  0  0  0  0
   -0.5490    2.0490    0.0000 F   0  0  0  0  0  0  0  0  0  0  0  0
    0.0000    0.0000    0.0000 C   0  0  0  0  0  0  0  0  0  0  0  0
   -0.0000   -1.5000    0.0000 F   0  0  0  0  0  0  0  0  0  0  0  0
    1.2990    0.7500    0.0000 C   0  0  0  0  0  0  0  0  0  0  0  0
    2.5981   -0.0000    0.0000 F   0  0  0  0  0  0  0  0  0  0  0  0
    1.2990    2.2500    0.0000 F   0  0  0  0  0  0  0  0  0  0  0  0
  1  2  2  0
  2  3  2  0
  2  4  1  0
  2  5  1  0
  5  6  1  0
  5  7  1  0
  5  8  1  0
  8  9  1  0
  8 10  1  0
  8 11  1  0
 11 12  1  0
 11 13  2  0
 13 14  1  0
 13 15  1  0
M  END
$$$$

     RDKit          2D

 16 15  0  0  0  0  0  0  0  0999 V2000
    0.0000    0.0000    0.0000 C   0  0  0  0  0  0  0  0  0  0  0  0
    1.2990    0.7500    0.0000 O   0  0  0  0  0  0  0  0  0  0  0  0
    2.5981   -0.0000    0.0000 C   0  0  0  0  0  0  0  0  0  0  0  0
    3.8971    0.7500    0.0000 C   0  0  0  0  0  0  0  0  0  0  0  0
    5.1962   -0.0000    0.0000 C   0  0  0  0  0  0  0  0  0  0  0  0
    4.4462   -1.2990    0.0000 O   0  0  0  0  0  0  0  0  0  0  0  0
    6.4952   -0.7500    0.0000 C   0  0  0  0  0  0  0  0  0  0  0  0
    7.7942   -1.5000    0.0000 F   0  0  0  0  0  0  0  0  0  0  0  0
    5.7452   -2.0490    0.0000 F   0  0  0  0  0  0  0  0  0  0  0  0
    7.0283   -0.0426    0.0000 F   0  0  0  0  0  0  0  0  0  0  0  0
    5.9462    1.2990    0.0000 C   0  0  0  0  0  0  0  0  0  0  0  0
    6.6962    2.5981    0.0000 F   0  0  0  0  0  0  0  0  0  0  0  0
    4.6471    2.0490    0.0000 F   0  0  0  0  0  0  0  0  0  0  0  0
    6.7615    0.9530    0.0000 F   0  0  0  0  0  0  0  0  0  0  0  0
    2.5981   -1.5000    0.0000 O   0  0  0  0  0  0  0  0  0  0  0  0
    3.8971   -2.2500    0.0000 C   0  0  0  0  0  0  0  0  0  0  0  0
  1  2  1  0
  2  3  1  0
  3  4  2  0
  4  5  1  0
  5  6  1  0
  5  7  1  0
  7  8  1  0
  7  9  1  0
  7 10  1  0
  5 11  1  0
 11 12  1  0
 11 13  1  0
 11 14  1  0
  3 15  1  0
 15 16  1  0
M  END
$$$$

     RDKit          2D

 17 17  0  0  0  0  0  0  0  0999 V2000
    3.0000    0.0000    0.0000 F   0  0  0  0  0  0  0  0  0  0  0  0
    1.5000    0.0000    0.0000 C   0  0  0  0  0  0  0  0  0  0  0  0
    0.7500   -1.2990    0.0000 C   0  0  0  0  0  0  0  0  0  0  0  0
   -0.7500   -1.2990    0.0000 C   0  0  0  0  0  0  0  0  0  0  0  0
   -1.5000   -2.5981    0.0000 C   0  0  0  0  0  0  0  0  0  0  0  0
   -2.7990   -1.8481    0.0000 F   0  0  0  0  0  0  0  0  0  0  0  0
   -0.2010   -3.3481    0.0000 F   0  0  0  0  0  0  0  0  0  0  0  0
   -2.2500   -3.8971    0.0000 C   0  0  0  0  0  0  0  0  0  0  0  0
   -3.0000   -5.1962    0.0000 F   0  0  0  0  0  0  0  0  0  0  0  0
   -0.9510   -4.6471    0.0000 F   0  0  0  0  0  0  0  0  0  0  0  0
   -3.5490   -3.1471    0.0000 F   0  0  0  0  0  0  0  0  0  0  0  0
   -1.5000    0.0000    0.0000 C   0  0  0  0  0  0  0  0  0  0  0  0
   -3.0000    0.0000    0.0000 F   0  0  0  0  0  0  0  0  0  0  0  0
   -0.7500    1.2990    0.0000 C   0  0  0  0  0  0  0  0  0  0  0  0
   -1.5000    2.5981    0.0000 F   0  0  0  0  0  0  0  0  0  0  0  0
    0.7500    1.2990    0.0000 C   0  0  0  0  0  0  0  0  0  0  0  0
    1.5000    2.5981    0.0000 F   0  0  0  0  0  0  0  0  0  0  0  0
  1  2  1  0
  2  3  2  0
  3  4  1  0
  4  5  1  0
  5  6  1  0
  5  7  1  0
  5  8  1  0
  8  9  1  0
  8 10  1  0
  8 11  1  0
  4 12  2  0
 12 13  1  0
 12 14  1  0
 14 15  1  0
 14 16  2  0
 16 17  1  0
 16  2  1  0
M  END
$$$$

     RDKit          2D

 12 11  0  0  0  0  0  0  0  0999 V2000
   -1.2990    0.7500    0.0000 F   0  0  0  0  0  0  0  0  0  0  0  0
    0.0000    0.0000    0.0000 C   0  0  0  0  0  0  0  0  0  0  0  0
   -0.0000   -1.5000    0.0000 F   0  0  0  0  0  0  0  0  0  0  0  0
    1.2990    0.7500    0.0000 C   0  0  0  0  0  0  0  0  0  0  0  0
    1.2990    2.2500    0.0000 F   0  0  0  0  0  0  0  0  0  0  0  0
    2.5981   -0.0000    0.0000 C   0  0  0  0  0  0  0  0  0  0  0  0
    3.3481    1.2990    0.0000 F   0  0  0  0  0  0  0  0  0  0  0  0
    1.8481   -1.2990    0.0000 Br  0  0  0  0  0  0  0  0  0  0  0  0
    3.8971   -0.7500    0.0000 C   0  0  0  0  0  0  0  0  0  0  0  0
    5.1962   -1.5000    0.0000 F   0  0  0  0  0  0  0  0  0  0  0  0
    3.1471   -2.0490    0.0000 F   0  0  0  0  0  0  0  0  0  0  0  0
    4.6471    0.5490    0.0000 F   0  0  0  0  0  0  0  0  0  0  0  0
  1  2  1  0
  2  3  1  0
  2  4  2  0
  4  5  1  0
  4  6  1  0
  6  7  1  0
  6  8  1  0
  6  9  1  0
  9 10  1  0
  9 11  1  0
  9 12  1  0
M  END
$$$$

     RDKit          2D

 22 23  0  0  0  0  0  0  0  0999 V2000
    6.0000   -2.5981    0.0000 F   0  0  0  0  0  0  0  0  0  0  0  0
    4.5000   -2.5981    0.0000 C   0  0  0  0  0  0  0  0  0  0  0  0
    3.7500   -3.8971    0.0000 C   0  0  0  0  0  0  0  0  0  0  0  0
    3.0000   -5.1962    0.0000 F   0  0  0  0  0  0  0  0  0  0  0  0
    5.0490   -4.6471    0.0000 F   0  0  0  0  0  0  0  0  0  0  0  0
    2.4510   -3.1471    0.0000 F   0  0  0  0  0  0  0  0  0  0  0  0
    3.7500   -1.2990    0.0000 C   0  0  0  0  0  0  0  0  0  0  0  0
    2.4510   -2.0490    0.0000 F   0  0  0  0  0  0  0  0  0  0  0  0
    5.0490   -0.5490    0.0000 F   0  0  0  0  0  0  0  0  0  0  0  0
    3.0000    0.0000    0.0000 O   0  0  0  0  0  0  0  0  0  0  0  0
    1.5000    0.0000    0.0000 C   0  0  0  0  0  0  0  0  0  0  0  0
    0.7500   -1.2990    0.0000 C   0  0  0  0  0  0  0  0  0  0  0  0
   -0.7500   -1.2990    0.0000 C   0  0  0  0  0  0  0  0  0  0  0  0
   -1.5000    0.0000    0.0000 C   0  0  0  0  0  0  0  0  0  0  0  0
   -3.0000    0.0000    0.0000 C   0  0  0  0  0  0  0  0  0  0  0  0
   -3.7500    1.2990    0.0000 C   0  0  0  0  0  0  0  0  0  0  0  0
   -5.2500    1.2990    0.0000 C   0  0  0  0  0  0  0  0  0  0  0  0
   -6.0000    0.0000    0.0000 C   0  0  0  0  0  0  0  0  0  0  0  0
   -5.2500   -1.2990    0.0000 C   0  0  0  0  0  0  0  0  0  0  0  0
   -3.7500   -1.2990    0.0000 C   0  0  0  0  0  0  0  0  0  0  0  0
   -0.7500    1.2990    0.0000 C   0  0  0  0  0  0  0  0  0  0  0  0
    0.7500    1.2990    0.0000 C   0  0  0  0  0  0  0  0  0  0  0  0
  1  2  1  0
  2  3  1  0
  3  4  1  0
  3  5  1  0
  3  6  1  0
  2  7  1  0
  7  8  1  0
  7  9  1  0
  7 10  1  0
 10 11  1  0
 11 12  2  0
 12 13  1  0
 13 14  2  0
 14 15  1  0
 15 16  2  0
 16 17  1  0
 17 18  2  0
 18 19  1  0
 19 20  2  0
 14 21  1  0
 21 22  2  0
 22 11  1  0
 20 15  1  0
M  END
$$$$

     RDKit          2D

 20 20  0  0  0  0  0  0  0  0999 V2000
    4.2990    3.7500    0.0000 C   0  0  0  0  0  0  0  0  0  0  0  0
    4.2990    2.2500    0.0000 C   0  0  0  0  0  0  0  0  0  0  0  0
    5.0661    1.8071    0.0000 O   0  0  0  0  0  0  0  0  0  0  0  0
    3.0000    1.5000    0.0000 N   0  0  0  0  0  0  0  0  0  0  0  0
    3.0000    0.0000    0.0000 C   0  0  0  0  0  0  0  0  0  0  0  0
    1.5000    0.0000    0.0000 C   0  0  0  0  0  0  0  0  0  0  0  0
    0.7500   -1.2990    0.0000 C   0  0  0  0  0  0  0  0  0  0  0  0
   -0.7500   -1.2990    0.0000 C   0  0  0  0  0  0  0  0  0  0  0  0
   -1.5000    0.0000    0.0000 C   0  0  0  0  0  0  0  0  0  0  0  0
   -3.0000    0.0000    0.0000 F   0  0  0  0  0  0  0  0  0  0  0  0
   -0.7500    1.2990    0.0000 C   0  0  0  0  0  0  0  0  0  0  0  0
    0.7500    1.2990    0.0000 C   0  0  0  0  0  0  0  0  0  0  0  0
    4.5000    0.0000    0.0000 C   0  0  0  0  0  0  0  0  0  0  0  0
    6.0000    0.0000    0.0000 F   0  0  0  0  0  0  0  0  0  0  0  0
    4.7143    0.8594    0.0000 F   0  0  0  0  0  0  0  0  0  0  0  0
    4.6080   -0.8791    0.0000 F   0  0  0  0  0  0  0  0  0  0  0  0
    3.0000   -1.5000    0.0000 C   0  0  0  0  0  0  0  0  0  0  0  0
    3.0000   -3.0000    0.0000 F   0  0  0  0  0  0  0  0  0  0  0  0
    3.8791   -1.6080    0.0000 F   0  0  0  0  0  0  0  0  0  0  0  0
    1.5446   -1.8630    0.0000 F   0  0  0  0  0  0  0  0  0  0  0  0
  1  2  1  0
  2  3  2  0
  2  4  1  0
  4  5  1  0
  5  6  1  0
  6  7  2  0
  7  8  1  0
  8  9  2  0
  9 10  1  0
  9 11  1  0
 11 12  2  0
  5 13  1  0
 13 14  1  0
 13 15  1  0
 13 16  1  0
  5 17  1  0
 17 18  1  0
 17 19  1  0
 17 20  1  0
 12  6  1  0
M  END
$$$$

     RDKit          2D

 24 23  0  0  0  0  0  0  0  0999 V2000
    0.0000    0.0000    0.0000 C   0  0  0  0  0  0  0  0  0  0  0  0
    1.2990    0.7500    0.0000 O   0  0  0  0  0  0  0  0  0  0  0  0
    2.5981   -0.0000    0.0000 C   0  0  0  0  0  0  0  0  0  0  0  0
    2.5981   -1.5000    0.0000 O   0  0  0  0  0  0  0  0  0  0  0  0
    3.8971    0.7500    0.0000 C   0  0  0  0  0  0  0  0  0  0  0  0
    5.1962   -0.0000    0.0000 C   0  0  0  0  0  0  0  0  0  0  0  0
    5.9462    1.2990    0.0000 F   0  0  0  0  0  0  0  0  0  0  0  0
    4.4462   -1.2990    0.0000 F   0  0  0  0  0  0  0  0  0  0  0  0
    6.4952   -0.7500    0.0000 C   0  0  0  0  0  0  0  0  0  0  0  0
    5.7452   -2.0490    0.0000 F   0  0  0  0  0  0  0  0  0  0  0  0
    7.2452    0.5490    0.0000 F   0  0  0  0  0  0  0  0  0  0  0  0
    7.7942   -1.5000    0.0000 C   0  0  0  0  0  0  0  0  0  0  0  0
    8.5442   -0.2010    0.0000 F   0  0  0  0  0  0  0  0  0  0  0  0
    7.0442   -2.7990    0.0000 F   0  0  0  0  0  0  0  0  0  0  0  0
    9.0933   -2.2500    0.0000 C   0  0  0  0  0  0  0  0  0  0  0  0
    8.3433   -3.5490    0.0000 F   0  0  0  0  0  0  0  0  0  0  0  0
    9.8433   -0.9510    0.0000 F   0  0  0  0  0  0  0  0  0  0  0  0
   10.3923   -3.0000    0.0000 C   0  0  0  0  0  0  0  0  0  0  0  0
   11.1423   -1.7010    0.0000 F   0  0  0  0  0  0  0  0  0  0  0  0
    9.6423   -4.2990    0.0000 F   0  0  0  0  0  0  0  0  0  0  0  0
   11.6913   -3.7500    0.0000 C   0  0  0  0  0  0  0  0  0  0  0  0
   12.9904   -4.5000    0.0000 F   0  0  0  0  0  0  0  0  0  0  0  0
   10.9413   -5.0490    0.0000 F   0  0  0  0  0  0  0  0  0  0  0  0
   12.4413   -2.4510    0.0000 F   0  0  0  0  0  0  0  0  0  0  0  0
  1  2  1  0
  2  3  1  0
  3  4  2  0
  3  5  1  0
  5  6  1  0
  6  7  1  0
  6  8  1  0
  6  9  1  0
  9 10  1  0
  9 11  1  0
  9 12  1  0
 12 13  1  0
 12 14  1  0
 12 15  1  0
 15 16  1  0
 15 17  1  0
 15 18  1  0
 18 19  1  0
 18 20  1  0
 18 21  1  0
 21 22  1  0
 21 23  1  0
 21 24  1  0
M  END
$$$$

     RDKit          2D

 17 16  0  0  0  0  0  0  0  0999 V2000
   -0.9510    0.5490    0.0000 C   0  0  0  0  0  0  0  0  0  0  0  0
   -0.9510    2.0490    0.0000 Si  0  0  0  0  0  4  0  0  0  0  0  0
   -0.9510    3.5490    0.0000 C   0  0  0  0  0  0  0  0  0  0  0  0
   -2.4510    2.0490    0.0000 C   0  0  0  0  0  0  0  0  0  0  0  0
    0.5490    2.0490    0.0000 O   0  0  0  0  0  0  0  0  0  0  0  0
    1.2990    3.3481    0.0000 C   0  0  0  0  0  0  0  0  0  0  0  0
    0.0000    4.0981    0.0000 C   0  0  0  0  0  0  0  0  0  0  0  0
    0.0000    5.5981    0.0000 C   0  0  0  0  0  0  0  0  0  0  0  0
    0.0000    7.0981    0.0000 O   0  0  0  0  0  0  0  0  0  0  0  0
    2.5981    2.5981    0.0000 C   0  0  0  0  0  0  0  0  0  0  0  0
    3.8971    1.8481    0.0000 F   0  0  0  0  0  0  0  0  0  0  0  0
    3.1311    3.3054    0.0000 F   0  0  0  0  0  0  0  0  0  0  0  0
    1.8481    1.2990    0.0000 F   0  0  0  0  0  0  0  0  0  0  0  0
    2.0490    4.6471    0.0000 C   0  0  0  0  0  0  0  0  0  0  0  0
    2.7990    5.9462    0.0000 F   0  0  0  0  0  0  0  0  0  0  0  0
    2.8644    4.3011    0.0000 F   0  0  0  0  0  0  0  0  0  0  0  0
    0.9701    5.6892    0.0000 F   0  0  0  0  0  0  0  0  0  0  0  0
  1  2  1  0
  2  3  1  0
  2  4  1  0
  2  5  1  0
  5  6  1  0
  6  7  1  0
  7  8  2  0
  8  9  2  0
  6 10  1  0
 10 11  1  0
 10 12  1  0
 10 13  1  0
  6 14  1  0
 14 15  1  0
 14 16  1  0
 14 17  1  0
M  END
$$$$

     RDKit          2D

 19 18  0  0  0  0  0  0  0  0999 V2000
   -1.2990    0.7500    0.0000 O   0  0  0  0  0  0  0  0  0  0  0  0
    0.0000    0.0000    0.0000 C   0  0  0  0  0  0  0  0  0  0  0  0
   -0.0000   -1.5000    0.0000 F   0  0  0  0  0  0  0  0  0  0  0  0
    1.2990    0.7500    0.0000 C   0  0  0  0  0  0  0  0  0  0  0  0
    2.0490   -0.5490    0.0000 F   0  0  0  0  0  0  0  0  0  0  0  0
    0.5490    2.0490    0.0000 F   0  0  0  0  0  0  0  0  0  0  0  0
    2.5981    1.5000    0.0000 C   0  0  0  0  0  0  0  0  0  0  0  0
    1.8481    2.7990    0.0000 F   0  0  0  0  0  0  0  0  0  0  0  0
    3.3481    0.2010    0.0000 F   0  0  0  0  0  0  0  0  0  0  0  0
    3.8971    2.2500    0.0000 C   0  0  0  0  0  0  0  0  0  0  0  0
    4.6471    0.9510    0.0000 F   0  0  0  0  0  0  0  0  0  0  0  0
    3.1471    3.5490    0.0000 F   0  0  0  0  0  0  0  0  0  0  0  0
    5.1962    3.0000    0.0000 C   0  0  0  0  0  0  0  0  0  0  0  0
    4.4462    4.2990    0.0000 F   0  0  0  0  0  0  0  0  0  0  0  0
    5.9462    1.7010    0.0000 F   0  0  0  0  0  0  0  0  0  0  0  0
    6.4952    3.7500    0.0000 C   0  0  0  0  0  0  0  0  0  0  0  0
    7.7942    4.5000    0.0000 F   0  0  0  0  0  0  0  0  0  0  0  0
    7.2452    2.4510    0.0000 F   0  0  0  0  0  0  0  0  0  0  0  0
    5.7452    5.0490    0.0000 Cl  0  0  0  0  0  0  0  0  0  0  0  0
  1  2  2  0
  2  3  1  0
  2  4  1  0
  4  5  1  0
  4  6  1  0
  4  7  1  0
  7  8  1  0
  7  9  1  0
  7 10  1  0
 10 11  1  0
 10 12  1  0
 10 13  1  0
 13 14  1  0
 13 15  1  0
 13 16  1  0
 16 17  1  0
 16 18  1  0
 16 19  1  0
M  END
$$$$

     RDKit          2D

 14 13  0  0  0  0  0  0  0  0999 V2000
   -0.0000   -1.5000    0.0000 O   0  0  0  0  0  0  0  0  0  0  0  0
    0.0000    0.0000    0.0000 C   0  0  0  0  0  0  0  0  0  0  0  0
   -1.2990    0.7500    0.0000 O   0  0  0  0  0  0  0  0  0  0  0  0
    1.2990    0.7500    0.0000 C   0  0  0  0  0  0  0  0  0  0  0  0
    2.0490   -0.5490    0.0000 F   0  0  0  0  0  0  0  0  0  0  0  0
    0.5490    2.0490    0.0000 F   0  0  0  0  0  0  0  0  0  0  0  0
    2.5981    1.5000    0.0000 O   0  0  0  0  0  0  0  0  0  0  0  0
    2.5981    3.0000    0.0000 C   0  0  0  0  0  0  0  0  0  0  0  0
    1.0981    3.0000    0.0000 F   0  0  0  0  0  0  0  0  0  0  0  0
    4.0981    3.0000    0.0000 F   0  0  0  0  0  0  0  0  0  0  0  0
    2.5981    4.5000    0.0000 C   0  0  0  0  0  0  0  0  0  0  0  0
    2.5981    6.0000    0.0000 F   0  0  0  0  0  0  0  0  0  0  0  0
    1.0981    4.5000    0.0000 F   0  0  0  0  0  0  0  0  0  0  0  0
    4.0981    4.5000    0.0000 Cl  0  0  0  0  0  0  0  0  0  0  0  0
  1  2  2  0
  2  3  1  0
  2  4  1  0
  4  5  1  0
  4  6  1  0
  4  7  1  0
  7  8  1  0
  8  9  1  0
  8 10  1  0
  8 11  1  0
 11 12  1  0
 11 13  1  0
 11 14  1  0
M  END
$$$$

     RDKit          2D

 16 16  0  0  0  0  0  0  0  0999 V2000
    3.0000    0.0000    0.0000 O   0  0  0  0  0  0  0  0  0  0  0  0
    1.5000    0.0000    0.0000 C   0  0  0  0  0  0  0  0  0  0  0  0
    0.7500   -1.2990    0.0000 C   0  0  0  0  0  0  0  0  0  0  0  0
   -0.7500   -1.2990    0.0000 C   0  0  0  0  0  0  0  0  0  0  0  0
   -1.5000    0.0000    0.0000 C   0  0  0  0  0  0  0  0  0  0  0  0
   -0.7500    1.2990    0.0000 C   0  0  0  0  0  0  0  0  0  0  0  0
    0.7500    1.2990    0.0000 C   0  0  0  0  0  0  0  0  0  0  0  0
    1.5000    2.5981    0.0000 C   0  0  0  0  0  0  0  0  0  0  0  0
    0.7500    3.8971    0.0000 O   0  0  0  0  0  0  0  0  0  0  0  0
    3.0000    2.5981    0.0000 C   0  0  0  0  0  0  0  0  0  0  0  0
    3.0000    4.0981    0.0000 F   0  0  0  0  0  0  0  0  0  0  0  0
    3.0000    1.0981    0.0000 F   0  0  0  0  0  0  0  0  0  0  0  0
    4.5000    2.5981    0.0000 C   0  0  0  0  0  0  0  0  0  0  0  0
    6.0000    2.5981    0.0000 F   0  0  0  0  0  0  0  0  0  0  0  0
    4.5000    1.0981    0.0000 F   0  0  0  0  0  0  0  0  0  0  0  0
    4.5000    4.0981    0.0000 F   0  0  0  0  0  0  0  0  0  0  0  0
  1  2  2  0
  2  3  1  0
  3  4  1  0
  4  5  1  0
  5  6  1  0
  6  7  1  0
  7  8  1  0
  8  9  2  0
  8 10  1  0
 10 11  1  0
 10 12  1  0
 10 13  1  0
 13 14  1  0
 13 15  1  0
 13 16  1  0
  7  2  1  0
M  END
$$$$

     RDKit          2D

 25 25  0  0  0  0  0  0  0  0999 V2000
    3.7500    1.2990    0.0000 O   0  0  0  0  0  0  0  0  0  0  0  0
    3.0000   -0.0000    0.0000 C   0  0  0  0  0  0  0  0  0  0  0  0
    3.7500   -1.2990    0.0000 O   0  0  0  0  0  0  0  0  0  0  0  0
    1.5000   -0.0000    0.0000 C   0  0  0  0  0  0  0  0  0  0  0  0
    0.7500   -1.2990    0.0000 C   0  0  0  0  0  0  0  0  0  0  0  0
   -0.7500   -1.2990    0.0000 C   0  0  0  0  0  0  0  0  0  0  0  0
   -1.5000    0.0000    0.0000 C   0  0  0  0  0  0  0  0  0  0  0  0
   -0.7500    1.2990    0.0000 C   0  0  0  0  0  0  0  0  0  0  0  0
   -1.5000    2.5981    0.0000 S   0  0  0  0  0  0  0  0  0  0  0  0
   -0.1192    3.1841    0.0000 O   0  0  0  0  0  0  0  0  0  0  0  0
   -2.1366    2.1183    0.0000 O   0  0  0  0  0  0  0  0  0  0  0  0
   -2.2500    3.8971    0.0000 C   0  0  0  0  0  0  0  0  0  0  0  0
   -3.5490    3.1471    0.0000 C   0  0  0  0  0  0  0  0  0  0  0  0
   -4.8481    2.3971    0.0000 F   0  0  0  0  0  0  0  0  0  0  0  0
   -4.4518    4.3450    0.0000 F   0  0  0  0  0  0  0  0  0  0  0  0
   -3.2030    2.3318    0.0000 F   0  0  0  0  0  0  0  0  0  0  0  0
   -0.9510    4.6471    0.0000 C   0  0  0  0  0  0  0  0  0  0  0  0
    0.3481    5.3971    0.0000 F   0  0  0  0  0  0  0  0  0  0  0  0
   -1.5370    6.0279    0.0000 F   0  0  0  0  0  0  0  0  0  0  0  0
   -0.0482    3.4492    0.0000 F   0  0  0  0  0  0  0  0  0  0  0  0
   -3.0000    5.1962    0.0000 C   0  0  0  0  0  0  0  0  0  0  0  0
   -3.7500    6.4952    0.0000 F   0  0  0  0  0  0  0  0  0  0  0  0
   -1.8021    6.0989    0.0000 F   0  0  0  0  0  0  0  0  0  0  0  0
   -4.3808    4.6101    0.0000 F   0  0  0  0  0  0  0  0  0  0  0  0
    0.7500    1.2990    0.0000 C   0  0  0  0  0  0  0  0  0  0  0  0
  1  2  2  0
  2  3  1  0
  2  4  1  0
  4  5  2  0
  5  6  1  0
  6  7  2  0
  7  8  1  0
  8  9  1  0
  9 10  2  0
  9 11  2  0
  9 12  1  0
 12 13  1  0
 13 14  1  0
 13 15  1  0
 13 16  1  0
 12 17  1  0
 17 18  1  0
 17 19  1  0
 17 20  1  0
 12 21  1  0
 21 22  1  0
 21 23  1  0
 21 24  1  0
  8 25  2  0
 25  4  1  0
M  END
$$$$

     RDKit          2D

 14 13  0  0  0  0  0  0  0  0999 V2000
   -0.0817    0.1639    0.0000 C   0  0  0  0  0  0  0  0  0  0  0  0
    1.2990    0.7500    0.0000 C   0  0  0  0  0  0  0  0  0  0  0  0
    2.5981   -0.0000    0.0000 C   0  0  0  0  0  0  0  0  0  0  0  0
    3.8971   -0.7500    0.0000 C   0  0  0  0  0  0  0  0  0  0  0  0
    4.0800   -2.2388    0.0000 O   0  0  0  0  0  0  0  0  0  0  0  0
    5.2779   -0.1639    0.0000 F   0  0  0  0  0  0  0  0  0  0  0  0
    3.3481    1.2990    0.0000 C   0  0  0  0  0  0  0  0  0  0  0  0
    4.0981    2.5981    0.0000 F   0  0  0  0  0  0  0  0  0  0  0  0
    2.0490    2.0490    0.0000 F   0  0  0  0  0  0  0  0  0  0  0  0
    4.7288    0.7130    0.0000 F   0  0  0  0  0  0  0  0  0  0  0  0
    1.8481   -1.2990    0.0000 C   0  0  0  0  0  0  0  0  0  0  0  0
    1.0981   -2.5981    0.0000 F   0  0  0  0  0  0  0  0  0  0  0  0
    3.0460   -2.2018    0.0000 F   0  0  0  0  0  0  0  0  0  0  0  0
    0.4673   -0.7130    0.0000 F   0  0  0  0  0  0  0  0  0  0  0  0
  1  2  1  0
  2  3  1  0
  3  4  1  0
  4  5  2  0
  4  6  1  0
  3  7  1  0
  7  8  1  0
  7  9  1  0
  7 10  1  0
  3 11  1  0
 11 12  1  0
 11 13  1  0
 11 14  1  0
M  END
$$$$

     RDKit          2D

  8  8  0  0  0  0  0  0  0  0999 V2000
    2.1213    1.0607    0.0000 F   0  0  0  0  0  0  0  0  0  0  0  0
    1.0607    0.0000    0.0000 C   0  0  0  0  0  0  0  0  0  0  0  0
    2.1213   -1.0607    0.0000 F   0  0  0  0  0  0  0  0  0  0  0  0
   -0.0000   -1.0607    0.0000 C   0  0  0  0  0  0  0  0  0  0  0  0
   -1.0607    0.0000    0.0000 C   0  0  0  0  0  0  0  0  0  0  0  0
   -2.1213   -1.0607    0.0000 F   0  0  0  0  0  0  0  0  0  0  0  0
   -2.1213    1.0607    0.0000 F   0  0  0  0  0  0  0  0  0  0  0  0
    0.0000    1.0607    0.0000 O   0  0  0  0  0  0  0  0  0  0  0  0
  1  2  1  0
  2  3  1  0
  2  4  1  0
  4  5  1  0
  5  6  1  0
  5  7  1  0
  5  8  1  0
  8  2  1  0
M  END
$$$$

     RDKit          2D

 16 16  0  0  0  0  0  0  0  0999 V2000
    3.7500   -1.2990    0.0000 C   0  0  0  0  0  0  0  0  0  0  0  0
    3.0000    0.0000    0.0000 O   0  0  0  0  0  0  0  0  0  0  0  0
    1.5000    0.0000    0.0000 C   0  0  0  0  0  0  0  0  0  0  0  0
    0.7500   -1.2990    0.0000 C   0  0  0  0  0  0  0  0  0  0  0  0
   -0.7500   -1.2990    0.0000 C   0  0  0  0  0  0  0  0  0  0  0  0
   -1.5000    0.0000    0.0000 C   0  0  0  0  0  0  0  0  0  0  0  0
   -3.0000    0.0000    0.0000 N   0  0  0  0  0  0  0  0  0  0  0  0
   -3.7500    1.2990    0.0000 C   0  0  0  0  0  0  0  0  0  0  0  0
   -5.2500    1.2990    0.0000 C   0  0  0  0  0  0  0  0  0  0  0  0
   -5.2500    2.7990    0.0000 F   0  0  0  0  0  0  0  0  0  0  0  0
   -5.2500   -0.2010    0.0000 F   0  0  0  0  0  0  0  0  0  0  0  0
   -6.7500    1.2990    0.0000 C   0  0  0  0  0  0  0  0  0  0  0  0
   -7.5000   -0.0000    0.0000 F   0  0  0  0  0  0  0  0  0  0  0  0
   -7.5000    2.5981    0.0000 F   0  0  0  0  0  0  0  0  0  0  0  0
   -0.7500    1.2990    0.0000 C   0  0  0  0  0  0  0  0  0  0  0  0
    0.7500    1.2990    0.0000 C   0  0  0  0  0  0  0  0  0  0  0  0
  1  2  1  0
  2  3  1  0
  3  4  2  0
  4  5  1  0
  5  6  2  0
  6  7  1  0
  7  8  2  0
  8  9  1  0
  9 10  1  0
  9 11  1  0
  9 12  1  0
 12 13  1  0
 12 14  1  0
  6 15  1  0
 15 16  2  0
 16  3  1  0
M  END
$$$$

     RDKit          2D

 13 12  0  0  0  0  0  0  0  0999 V2000
   -0.0000   -1.5000    0.0000 O   0  0  0  0  0  0  0  0  0  0  0  0
    0.0000    0.0000    0.0000 C   0  0  0  0  0  0  0  0  0  0  0  0
   -1.2990    0.7500    0.0000 C   0  0  0  0  0  0  0  0  0  0  0  0
   -2.5981    1.5000    0.0000 F   0  0  0  0  0  0  0  0  0  0  0  0
   -2.0490   -0.5490    0.0000 F   0  0  0  0  0  0  0  0  0  0  0  0
   -0.5490    2.0490    0.0000 Cl  0  0  0  0  0  0  0  0  0  0  0  0
    1.2990    0.7500    0.0000 C   0  0  0  0  0  0  0  0  0  0  0  0
    2.0490   -0.5490    0.0000 F   0  0  0  0  0  0  0  0  0  0  0  0
    0.5490    2.0490    0.0000 F   0  0  0  0  0  0  0  0  0  0  0  0
    2.5981    1.5000    0.0000 C   0  0  0  0  0  0  0  0  0  0  0  0
    3.8971    2.2500    0.0000 F   0  0  0  0  0  0  0  0  0  0  0  0
    1.8481    2.7990    0.0000 F   0  0  0  0  0  0  0  0  0  0  0  0
    3.3481    0.2010    0.0000 F   0  0  0  0  0  0  0  0  0  0  0  0
  1  2  2  0
  2  3  1  0
  3  4  1  0
  3  5  1  0
  3  6  1  0
  2  7  1  0
  7  8  1  0
  7  9  1  0
  7 10  1  0
 10 11  1  0
 10 12  1  0
 10 13  1  0
M  END
$$$$

     RDKit          2D

 14 15  0  0  0  0  0  0  0  0999 V2000
    1.0037   -4.7220    0.0000 F   0  0  0  0  0  0  0  0  0  0  0  0
   -0.0000   -3.6073    0.0000 C   0  0  0  0  0  0  0  0  0  0  0  0
   -1.0037   -4.7220    0.0000 F   0  0  0  0  0  0  0  0  0  0  0  0
    1.2135   -2.7256    0.0000 C   0  0  0  0  0  0  0  0  0  0  0  0
    0.7500   -1.2990    0.0000 C   0  0  0  0  0  0  0  0  0  0  0  0
    1.5000    0.0000    0.0000 C   0  0  0  0  0  0  0  0  0  0  0  0
    0.7500    1.2990    0.0000 C   0  0  0  0  0  0  0  0  0  0  0  0
   -0.7500    1.2990    0.0000 C   0  0  0  0  0  0  0  0  0  0  0  0
   -1.5000    2.5981    0.0000 Cl  0  0  0  0  0  0  0  0  0  0  0  0
   -1.5000    0.0000    0.0000 C   0  0  0  0  0  0  0  0  0  0  0  0
   -0.7500   -1.2990    0.0000 C   0  0  0  0  0  0  0  0  0  0  0  0
   -1.2135   -2.7256    0.0000 C   0  0  0  0  0  0  0  0  0  0  0  0
   -1.9635   -4.0247    0.0000 F   0  0  0  0  0  0  0  0  0  0  0  0
   -2.5838   -2.1155    0.0000 F   0  0  0  0  0  0  0  0  0  0  0  0
  1  2  1  0
  2  3  1  0
  2  4  1  0
  4  5  1  0
  5  6  2  0
  6  7  1  0
  7  8  2  0
  8  9  1  0
  8 10  1  0
 10 11  2  0
 11 12  1  0
 12 13  1  0
 12 14  1  0
 12  2  1  0
 11  5  1  0
M  END
$$$$

     RDKit          2D

 47 46  0  0  0  0  0  0  0  0999 V2000
    6.4952    3.7500    0.0000 F   0  0  0  0  0  0  0  0  0  0  0  0
    5.1962    3.0000    0.0000 C   0  0  0  0  0  0  0  0  0  0  0  0
    4.4462    4.2990    0.0000 F   0  0  0  0  0  0  0  0  0  0  0  0
    5.9462    1.7010    0.0000 F   0  0  0  0  0  0  0  0  0  0  0  0
    3.8971    2.2500    0.0000 C   0  0  0  0  0  0  0  0  0  0  0  0
    4.6471    0.9510    0.0000 F   0  0  0  0  0  0  0  0  0  0  0  0
    3.1471    3.5490    0.0000 F   0  0  0  0  0  0  0  0  0  0  0  0
    2.5981    1.5000    0.0000 C   0  0  0  0  0  0  0  0  0  0  0  0
    1.8481    2.7990    0.0000 F   0  0  0  0  0  0  0  0  0  0  0  0
    3.3481    0.2010    0.0000 F   0  0  0  0  0  0  0  0  0  0  0  0
    1.2990    0.7500    0.0000 C   0  0  0  0  0  0  0  0  0  0  0  0
    2.0490   -0.5490    0.0000 F   0  0  0  0  0  0  0  0  0  0  0  0
    0.5490    2.0490    0.0000 F   0  0  0  0  0  0  0  0  0  0  0  0
    0.0000    0.0000    0.0000 C   0  0  0  0  0  0  0  0  0  0  0  0
   -1.2990    0.7500    0.0000 C   0  0  0  0  0  0  0  0  0  0  0  0
   -2.5981    0.0000    0.0000 Sn  0  0  0  0  0  4  0  0  0  0  0  0
   -1.8481   -1.2990    0.0000 Br  0  0  0  0  0  0  0  0  0  0  0  0
   -3.8971   -0.7500    0.0000 C   0  0  0  0  0  0  0  0  0  0  0  0
   -3.8971   -2.2500    0.0000 C   0  0  0  0  0  0  0  0  0  0  0  0
   -5.1962   -3.0000    0.0000 C   0  0  0  0  0  0  0  0  0  0  0  0
   -4.4462   -4.2990    0.0000 F   0  0  0  0  0  0  0  0  0  0  0  0
   -5.9462   -1.7010    0.0000 F   0  0  0  0  0  0  0  0  0  0  0  0
   -6.4952   -3.7500    0.0000 C   0  0  0  0  0  0  0  0  0  0  0  0
   -7.2452   -2.4510    0.0000 F   0  0  0  0  0  0  0  0  0  0  0  0
   -5.7452   -5.0490    0.0000 F   0  0  0  0  0  0  0  0  0  0  0  0
   -7.7942   -4.5000    0.0000 C   0  0  0  0  0  0  0  0  0  0  0  0
   -7.0442   -5.7990    0.0000 F   0  0  0  0  0  0  0  0  0  0  0  0
   -8.5442   -3.2010    0.0000 F   0  0  0  0  0  0  0  0  0  0  0  0
   -9.0933   -5.2500    0.0000 C   0  0  0  0  0  0  0  0  0  0  0  0
  -10.3923   -6.0000    0.0000 F   0  0  0  0  0  0  0  0  0  0  0  0
   -9.8433   -3.9510    0.0000 F   0  0  0  0  0  0  0  0  0  0  0  0
   -8.3433   -6.5490    0.0000 F   0  0  0  0  0  0  0  0  0  0  0  0
   -3.3481    1.2990    0.0000 C   0  0  0  0  0  0  0  0  0  0  0  0
   -4.8481    1.2990    0.0000 C   0  0  0  0  0  0  0  0  0  0  0  0
   -5.5981    2.5981    0.0000 C   0  0  0  0  0  0  0  0  0  0  0  0
   -6.8971    1.8481    0.0000 F   0  0  0  0  0  0  0  0  0  0  0  0
   -4.2990    3.3481    0.0000 F   0  0  0  0  0  0  0  0  0  0  0  0
   -6.3481    3.8971    0.0000 C   0  0  0  0  0  0  0  0  0  0  0  0
   -5.0490    4.6471    0.0000 F   0  0  0  0  0  0  0  0  0  0  0  0
   -7.6471    3.1471    0.0000 F   0  0  0  0  0  0  0  0  0  0  0  0
   -7.0981    5.1962    0.0000 C   0  0  0  0  0  0  0  0  0  0  0  0
   -8.3971    4.4462    0.0000 F   0  0  0  0  0  0  0  0  0  0  0  0
   -5.7990    5.9462    0.0000 F   0  0  0  0  0  0  0  0  0  0  0  0
   -7.8481    6.4952    0.0000 C   0  0  0  0  0  0  0  0  0  0  0  0
   -8.5981    7.7942    0.0000 F   0  0  0  0  0  0  0  0  0  0  0  0
   -6.5490    7.2452    0.0000 F   0  0  0  0  0  0  0  0  0  0  0  0
   -9.1471    5.7452    0.0000 F   0  0  0  0  0  0  0  0  0  0  0  0
  1  2  1  0
  2  3  1  0
  2  4  1  0
  2  5  1  0
  5  6  1  0
  5  7  1  0
  5  8  1  0
  8  9  1  0
  8 10  1  0
  8 11  1  0
 11 12  1  0
 11 13  1  0
 11 14  1  0
 14 15  1  0
 15 16  1  0
 16 17  1  0
 16 18  1  0
 18 19  1  0
 19 20  1  0
 20 21  1  0
 20 22  1  0
 20 23  1  0
 23 24  1  0
 23 25  1  0
 23 26  1  0
 26 27  1  0
 26 28  1  0
 26 29  1  0
 29 30  1  0
 29 31  1  0
 29 32  1  0
 16 33  1  0
 33 34  1  0
 34 35  1  0
 35 36  1  0
 35 37  1  0
 35 38  1  0
 38 39  1  0
 38 40  1  0
 38 41  1  0
 41 42  1  0
 41 43  1  0
 41 44  1  0
 44 45  1  0
 44 46  1  0
 44 47  1  0
M  END
$$$$

     RDKit          2D

 27 26  0  0  0  0  0  0  0  0999 V2000
    0.0000    4.0000    0.0000 O   0  0  0  0  0  0  0  0  0  0  0  0
    3.0000    1.5000    0.0000 O   0  0  0  0  0  0  0  0  0  0  0  0
    3.0000    0.0000    0.0000 C   0  0  0  0  0  0  0  0  0  0  0  0
    1.5000    0.0000    0.0000 C   0  0  0  0  0  0  0  0  0  0  0  0
    0.7500   -1.2990    0.0000 C   0  0  0  0  0  0  0  0  0  0  0  0
   -0.7500   -1.2990    0.0000 C   0  0  0  0  0  0  0  0  0  0  0  0
   -1.5000    0.0000    0.0000 C   0  0  0  0  0  0  0  0  0  0  0  0
   -3.0000    0.0000    0.0000 C   0  0  0  0  0  0  0  0  0  0  0  0
   -3.0000   -1.5000    0.0000 O   0  0  0  0  0  0  0  0  0  0  0  0
   -4.5000    0.0000    0.0000 C   0  0  0  0  0  0  0  0  0  0  0  0
   -6.0000   -0.0000    0.0000 F   0  0  0  0  0  0  0  0  0  0  0  0
   -4.5000   -1.5000    0.0000 F   0  0  0  0  0  0  0  0  0  0  0  0
   -4.6080    0.8791    0.0000 F   0  0  0  0  0  0  0  0  0  0  0  0
   -3.0000    1.5000    0.0000 C   0  0  0  0  0  0  0  0  0  0  0  0
   -3.0000    3.0000    0.0000 F   0  0  0  0  0  0  0  0  0  0  0  0
   -3.8791    1.6080    0.0000 F   0  0  0  0  0  0  0  0  0  0  0  0
   -1.5446    1.8630    0.0000 F   0  0  0  0  0  0  0  0  0  0  0  0
   -0.7500    1.2990    0.0000 C   0  0  0  0  0  0  0  0  0  0  0  0
    0.7500    1.2990    0.0000 C   0  0  0  0  0  0  0  0  0  0  0  0
    4.5000    0.0000    0.0000 C   0  0  0  0  0  0  0  0  0  0  0  0
    6.0000    0.0000    0.0000 F   0  0  0  0  0  0  0  0  0  0  0  0
    4.5000    1.5000    0.0000 F   0  0  0  0  0  0  0  0  0  0  0  0
    4.6080   -0.8791    0.0000 F   0  0  0  0  0  0  0  0  0  0  0  0
    3.0000   -1.5000    0.0000 C   0  0  0  0  0  0  0  0  0  0  0  0
    3.0000   -3.0000    0.0000 F   0  0  0  0  0  0  0  0  0  0  0  0
    3.8791   -1.6080    0.0000 F   0  0  0  0  0  0  0  0  0  0  0  0
    1.5446   -1.8630    0.0000 F   0  0  0  0  0  0  0  0  0  0  0  0
  2  3  1  0
  3  4  1  0
  4  5  2  0
  5  6  1  0
  6  7  2  0
  7  8  1  0
  8  9  1  0
  8 10  1  0
 10 11  1  0
 10 12  1  0
 10 13  1  0
  8 14  1  0
 14 15  1  0
 14 16  1  0
 14 17  1  0
  7 18  1  0
 18 19  2  0
  3 20  1  0
 20 21  1  0
 20 22  1  0
 20 23  1  0
  3 24  1  0
 24 25  1  0
 24 26  1  0
 24 27  1  0
 19  4  1  0
M  END
$$$$

     RDKit          2D

 18 18  0  0  0  0  0  0  0  0999 V2000
    7.0981   -1.0981    0.0000 O   0  0  0  0  0  0  0  0  0  0  0  0
    5.7990   -1.8481    0.0000 S   0  0  0  0  0  0  0  0  0  0  0  0
    5.4876   -1.1143    0.0000 O   0  0  0  0  0  0  0  0  0  0  0  0
    6.5490   -3.1471    0.0000 F   0  0  0  0  0  0  0  0  0  0  0  0
    4.5000   -2.5981    0.0000 C   0  0  0  0  0  0  0  0  0  0  0  0
    5.2500   -3.8971    0.0000 F   0  0  0  0  0  0  0  0  0  0  0  0
    3.2010   -3.3481    0.0000 F   0  0  0  0  0  0  0  0  0  0  0  0
    3.7500   -1.2990    0.0000 C   0  0  0  0  0  0  0  0  0  0  0  0
    2.4510   -2.0490    0.0000 F   0  0  0  0  0  0  0  0  0  0  0  0
    4.4574   -0.7660    0.0000 F   0  0  0  0  0  0  0  0  0  0  0  0
    3.0000    0.0000    0.0000 O   0  0  0  0  0  0  0  0  0  0  0  0
    1.5000    0.0000    0.0000 C   0  0  0  0  0  0  0  0  0  0  0  0
    0.7500   -1.2990    0.0000 C   0  0  0  0  0  0  0  0  0  0  0  0
   -0.7500   -1.2990    0.0000 C   0  0  0  0  0  0  0  0  0  0  0  0
   -1.5000    0.0000    0.0000 C   0  0  0  0  0  0  0  0  0  0  0  0
   -3.0000    0.0000    0.0000 Br  0  0  0  0  0  0  0  0  0  0  0  0
   -0.7500    1.2990    0.0000 C   0  0  0  0  0  0  0  0  0  0  0  0
    0.7500    1.2990    0.0000 C   0  0  0  0  0  0  0  0  0  0  0  0
  1  2  2  0
  2  3  2  0
  2  4  1  0
  2  5  1  0
  5  6  1  0
  5  7  1  0
  5  8  1  0
  8  9  1  0
  8 10  1  0
  8 11  1  0
 11 12  1  0
 12 13  2  0
 13 14  1  0
 14 15  2  0
 15 16  1  0
 15 17  1  0
 17 18  2  0
 18 12  1  0
M  END
$$$$

     RDKit          2D

 20 19  0  0  0  0  0  0  0  0999 V2000
   -1.5000    0.0000    0.0000 O   0  0  0  0  0  0  0  0  0  0  0  0
    0.0000    0.0000    0.0000 C   0  0  0  0  0  0  0  0  0  0  0  0
    0.0000    1.5000    0.0000 F   0  0  0  0  0  0  0  0  0  0  0  0
   -0.0000   -1.5000    0.0000 F   0  0  0  0  0  0  0  0  0  0  0  0
    1.5000    0.0000    0.0000 C   0  0  0  0  0  0  0  0  0  0  0  0
    1.5000    1.5000    0.0000 F   0  0  0  0  0  0  0  0  0  0  0  0
    1.5000   -1.5000    0.0000 F   0  0  0  0  0  0  0  0  0  0  0  0
    3.0000    0.0000    0.0000 C   0  0  0  0  0  0  0  0  0  0  0  0
    3.0000   -1.5000    0.0000 F   0  0  0  0  0  0  0  0  0  0  0  0
    3.0000    1.5000    0.0000 F   0  0  0  0  0  0  0  0  0  0  0  0
    4.5000    0.0000    0.0000 C   0  0  0  0  0  0  0  0  0  0  0  0
    4.5000   -1.5000    0.0000 F   0  0  0  0  0  0  0  0  0  0  0  0
    4.5000    1.5000    0.0000 F   0  0  0  0  0  0  0  0  0  0  0  0
    6.0000    0.0000    0.0000 C   0  0  0  0  0  0  0  0  0  0  0  0
    6.0000    1.5000    0.0000 F   0  0  0  0  0  0  0  0  0  0  0  0
    6.0000   -1.5000    0.0000 F   0  0  0  0  0  0  0  0  0  0  0  0
    7.5000    0.0000    0.0000 C   0  0  0  0  0  0  0  0  0  0  0  0
    9.0000    0.0000    0.0000 F   0  0  0  0  0  0  0  0  0  0  0  0
    7.5000   -1.5000    0.0000 F   0  0  0  0  0  0  0  0  0  0  0  0
    7.5000    1.5000    0.0000 F   0  0  0  0  0  0  0  0  0  0  0  0
  1  2  1  0
  2  3  1  0
  2  4  1  0
  2  5  1  0
  5  6  1  0
  5  7  1  0
  5  8  1  0
  8  9  1  0
  8 10  1  0
  8 11  1  0
 11 12  1  0
 11 13  1  0
 11 14  1  0
 14 15  1  0
 14 16  1  0
 14 17  1  0
 17 18  1  0
 17 19  1  0
 17 20  1  0
M  END
$$$$

     RDKit          2D

 29 30  0  0  0  0  0  0  0  0999 V2000
   -0.7500   -3.8971    0.0000 O   0  0  0  0  0  0  0  0  0  0  0  0
    0.7500   -3.8971    0.0000 C   0  0  0  0  0  0  0  0  0  0  0  0
    1.5000   -2.5981    0.0000 N   0  0  0  0  0  0  0  0  0  0  0  0
    0.7500   -1.2990    0.0000 C   0  0  0  0  0  0  0  0  0  0  0  0
    1.5000    0.0000    0.0000 C   0  0  0  0  0  0  0  0  0  0  0  0
    0.7500    1.2990    0.0000 C   0  0  0  0  0  0  0  0  0  0  0  0
   -0.7500    1.2990    0.0000 C   0  0  0  0  0  0  0  0  0  0  0  0
   -1.5000    2.5981    0.0000 C   0  0  0  0  0  0  0  0  0  0  0  0
   -2.7990    1.8481    0.0000 O   0  0  0  0  0  0  0  0  0  0  0  0
   -2.2500    3.8971    0.0000 C   0  0  0  0  0  0  0  0  0  0  0  0
   -3.0000    5.1962    0.0000 F   0  0  0  0  0  0  0  0  0  0  0  0
   -3.5490    3.1471    0.0000 F   0  0  0  0  0  0  0  0  0  0  0  0
   -1.5426    4.4302    0.0000 F   0  0  0  0  0  0  0  0  0  0  0  0
   -0.2010    3.3481    0.0000 C   0  0  0  0  0  0  0  0  0  0  0  0
    1.0981    4.0981    0.0000 F   0  0  0  0  0  0  0  0  0  0  0  0
   -0.5470    4.1634    0.0000 F   0  0  0  0  0  0  0  0  0  0  0  0
    0.8411    2.2691    0.0000 F   0  0  0  0  0  0  0  0  0  0  0  0
   -1.5000    0.0000    0.0000 C   0  0  0  0  0  0  0  0  0  0  0  0
   -0.7500   -1.2990    0.0000 C   0  0  0  0  0  0  0  0  0  0  0  0
    1.5000   -5.1962    0.0000 C   0  0  0  0  0  0  0  0  0  0  0  0
    0.7500   -6.4952    0.0000 C   0  0  0  0  0  0  0  0  0  0  0  0
    1.5000   -7.7942    0.0000 C   0  0  0  0  0  0  0  0  0  0  0  0
    3.0000   -7.7942    0.0000 C   0  0  0  0  0  0  0  0  0  0  0  0
    3.7500   -9.0933    0.0000 C   0  0  0  0  0  0  0  0  0  0  0  0
    4.5000  -10.3923    0.0000 F   0  0  0  0  0  0  0  0  0  0  0  0
    2.4510   -9.8433    0.0000 F   0  0  0  0  0  0  0  0  0  0  0  0
    5.0490   -8.3433    0.0000 F   0  0  0  0  0  0  0  0  0  0  0  0
    3.7500   -6.4952    0.0000 C   0  0  0  0  0  0  0  0  0  0  0  0
    3.0000   -5.1962    0.0000 C   0  0  0  0  0  0  0  0  0  0  0  0
  1  2  2  0
  2  3  1  0
  3  4  1  0
  4  5  2  0
  5  6  1  0
  6  7  2  0
  7  8  1  0
  8  9  1  0
  8 10  1  0
 10 11  1  0
 10 12  1  0
 10 13  1  0
  8 14  1  0
 14 15  1  0
 14 16  1  0
 14 17  1  0
  7 18  1  0
 18 19  2  0
  2 20  1  0
 20 21  2  0
 21 22  1  0
 22 23  2  0
 23 24  1  0
 24 25  1  0
 24 26  1  0
 24 27  1  0
 23 28  1  0
 28 29  2  0
 19  4  1  0
 29 20  1  0
M  END
$$$$

     RDKit          2D

 12 11  0  0  0  0  0  0  0  0999 V2000
   -2.5981   -1.5000    0.0000 F   0  0  0  0  0  0  0  0  0  0  0  0
   -2.5981    0.0000    0.0000 C   0  0  0  0  0  0  0  0  0  0  0  0
   -1.2990    0.7500    0.0000 O   0  0  0  0  0  0  0  0  0  0  0  0
    0.0000    0.0000    0.0000 C   0  0  0  0  0  0  0  0  0  0  0  0
    1.2990    0.7500    0.0000 C   0  0  0  0  0  0  0  0  0  0  0  0
    2.5981    1.5000    0.0000 F   0  0  0  0  0  0  0  0  0  0  0  0
    2.0490   -0.5490    0.0000 F   0  0  0  0  0  0  0  0  0  0  0  0
    0.5490    2.0490    0.0000 F   0  0  0  0  0  0  0  0  0  0  0  0
   -3.8971    0.7500    0.0000 C   0  0  0  0  0  0  0  0  0  0  0  0
   -5.1962    1.5000    0.0000 F   0  0  0  0  0  0  0  0  0  0  0  0
   -4.6471   -0.5490    0.0000 F   0  0  0  0  0  0  0  0  0  0  0  0
   -3.1471    2.0490    0.0000 F   0  0  0  0  0  0  0  0  0  0  0  0
  1  2  1  0
  2  3  1  0
  3  4  1  0
  4  5  1  0
  5  6  1  0
  5  7  1  0
  5  8  1  0
  2  9  1  0
  9 10  1  0
  9 11  1  0
  9 12  1  0
M  END
$$$$

     RDKit          2D

 15 14  0  0  0  0  0  0  0  0999 V2000
    2.0490    0.9510    0.0000 H   0  0  0  0  0  0  0  0  0  0  0  0
    1.2990    2.2500    0.0000 C   0  0  0  0  0  0  0  0  0  0  0  0
    0.5490    3.5490    0.0000 H   0  0  0  0  0  0  0  0  0  0  0  0
    2.5981    3.0000    0.0000 F   0  0  0  0  0  0  0  0  0  0  0  0
   -0.0000    1.5000    0.0000 O   0  0  0  0  0  0  0  0  0  0  0  0
   -1.2990    2.2500    0.0000 C   0  0  0  0  0  0  0  0  0  0  0  0
   -0.5490    3.5490    0.0000 H   0  0  0  0  0  0  0  0  0  0  0  0
   -2.0490    0.9510    0.0000 C   0  0  0  0  0  0  0  0  0  0  0  0
   -2.7990   -0.3481    0.0000 F   0  0  0  0  0  0  0  0  0  0  0  0
   -2.8644    1.2970    0.0000 F   0  0  0  0  0  0  0  0  0  0  0  0
   -0.7500    0.2010    0.0000 F   0  0  0  0  0  0  0  0  0  0  0  0
   -2.5981    3.0000    0.0000 C   0  0  0  0  0  0  0  0  0  0  0  0
   -3.8971    3.7500    0.0000 F   0  0  0  0  0  0  0  0  0  0  0  0
   -3.1311    2.2926    0.0000 F   0  0  0  0  0  0  0  0  0  0  0  0
   -1.8481    4.2990    0.0000 F   0  0  0  0  0  0  0  0  0  0  0  0
  1  2  1  0
  2  3  1  0
  2  4  1  0
  2  5  1  0
  5  6  1  0
  6  7  1  0
  6  8  1  0
  8  9  1  0
  8 10  1  0
  8 11  1  0
  6 12  1  0
 12 13  1  0
 12 14  1  0
 12 15  1  0
M  ISO  3   1   2   3   2   7   2
M  END
$$$$

     RDKit          2D

 15 15  0  0  0  0  0  0  0  0999 V2000
    3.5054    2.0074    0.0000 F   0  0  0  0  0  0  0  0  0  0  0  0
    2.3907    1.0037    0.0000 C   0  0  0  0  0  0  0  0  0  0  0  0
    1.3870    2.1184    0.0000 F   0  0  0  0  0  0  0  0  0  0  0  0
    2.9923    0.4807    0.0000 F   0  0  0  0  0  0  0  0  0  0  0  0
    1.2760    0.0000    0.0000 C   0  0  0  0  0  0  0  0  0  0  0  0
    2.3907   -1.0037    0.0000 C   0  0  0  0  0  0  0  0  0  0  0  0
    3.5054   -2.0074    0.0000 F   0  0  0  0  0  0  0  0  0  0  0  0
    2.9923   -0.4807    0.0000 F   0  0  0  0  0  0  0  0  0  0  0  0
    1.3870   -2.1184    0.0000 F   0  0  0  0  0  0  0  0  0  0  0  0
    0.3943    1.2135    0.0000 O   0  0  0  0  0  0  0  0  0  0  0  0
   -1.0323    0.7500    0.0000 C   0  0  0  0  0  0  0  0  0  0  0  0
   -2.2458    1.6317    0.0000 Cl  0  0  0  0  0  0  0  0  0  0  0  0
   -1.0323   -0.7500    0.0000 C   0  0  0  0  0  0  0  0  0  0  0  0
   -2.2458   -1.6317    0.0000 Cl  0  0  0  0  0  0  0  0  0  0  0  0
    0.3943   -1.2135    0.0000 O   0  0  0  0  0  0  0  0  0  0  0  0
  1  2  1  0
  2  3  1  0
  2  4  1  0
  2  5  1  0
  5  6  1  0
  6  7  1  0
  6  8  1  0
  6  9  1  0
  5 10  1  0
 10 11  1  0
 11 12  1  0
 11 13  2  0
 13 14  1  0
 13 15  1  0
 15  5  1  0
M  END
$$$$

     RDKit          2D

 86 85  0  0  0  0  0  0  0  0999 V2000
   -3.8971   -0.7500    0.0000 O   0  0  0  0  0  0  0  0  0  0  0  0
   -2.5981    0.0000    0.0000 P   0  0  0  0  0  0  0  0  0  0  0  0
   -1.2990    0.7500    0.0000 O   0  0  0  0  0  0  0  0  0  0  0  0
    0.0000    0.0000    0.0000 C   0  0  0  0  0  0  0  0  0  0  0  0
    1.2990    0.7500    0.0000 C   0  0  0  0  0  0  0  0  0  0  0  0
    2.5981   -0.0000    0.0000 C   0  0  0  0  0  0  0  0  0  0  0  0
    3.3481    1.2990    0.0000 F   0  0  0  0  0  0  0  0  0  0  0  0
    1.8481   -1.2990    0.0000 F   0  0  0  0  0  0  0  0  0  0  0  0
    3.8971   -0.7500    0.0000 C   0  0  0  0  0  0  0  0  0  0  0  0
    3.1471   -2.0490    0.0000 F   0  0  0  0  0  0  0  0  0  0  0  0
    4.6471    0.5490    0.0000 F   0  0  0  0  0  0  0  0  0  0  0  0
    5.1962   -1.5000    0.0000 C   0  0  0  0  0  0  0  0  0  0  0  0
    5.9462   -0.2010    0.0000 F   0  0  0  0  0  0  0  0  0  0  0  0
    4.4462   -2.7990    0.0000 F   0  0  0  0  0  0  0  0  0  0  0  0
    6.4952   -2.2500    0.0000 C   0  0  0  0  0  0  0  0  0  0  0  0
    5.7452   -3.5490    0.0000 F   0  0  0  0  0  0  0  0  0  0  0  0
    7.2452   -0.9510    0.0000 F   0  0  0  0  0  0  0  0  0  0  0  0
    7.7942   -3.0000    0.0000 C   0  0  0  0  0  0  0  0  0  0  0  0
    8.5442   -1.7010    0.0000 F   0  0  0  0  0  0  0  0  0  0  0  0
    7.0442   -4.2990    0.0000 F   0  0  0  0  0  0  0  0  0  0  0  0
    9.0933   -3.7500    0.0000 C   0  0  0  0  0  0  0  0  0  0  0  0
    8.3433   -5.0490    0.0000 F   0  0  0  0  0  0  0  0  0  0  0  0
    9.8433   -2.4510    0.0000 F   0  0  0  0  0  0  0  0  0  0  0  0
   10.3923   -4.5000    0.0000 C   0  0  0  0  0  0  0  0  0  0  0  0
   11.1423   -3.2010    0.0000 F   0  0  0  0  0  0  0  0  0  0  0  0
    9.6423   -5.7990    0.0000 F   0  0  0  0  0  0  0  0  0  0  0  0
   11.6913   -5.2500    0.0000 C   0  0  0  0  0  0  0  0  0  0  0  0
   12.9904   -6.0000    0.0000 F   0  0  0  0  0  0  0  0  0  0  0  0
   10.9413   -6.5490    0.0000 F   0  0  0  0  0  0  0  0  0  0  0  0
   12.4413   -3.9510    0.0000 F   0  0  0  0  0  0  0  0  0  0  0  0
   -1.8481   -1.2990    0.0000 O   0  0  0  0  0  0  0  0  0  0  0  0
   -2.5981   -2.5981    0.0000 C   0  0  0  0  0  0  0  0  0  0  0  0
   -1.8481   -3.8971    0.0000 C   0  0  0  0  0  0  0  0  0  0  0  0
   -2.5981   -5.1962    0.0000 C   0  0  0  0  0  0  0  0  0  0  0  0
   -1.2990   -5.9462    0.0000 F   0  0  0  0  0  0  0  0  0  0  0  0
   -3.8971   -4.4462    0.0000 F   0  0  0  0  0  0  0  0  0  0  0  0
   -3.3481   -6.4952    0.0000 C   0  0  0  0  0  0  0  0  0  0  0  0
   -4.6471   -5.7452    0.0000 F   0  0  0  0  0  0  0  0  0  0  0  0
   -2.0490   -7.2452    0.0000 F   0  0  0  0  0  0  0  0  0  0  0  0
   -4.0981   -7.7942    0.0000 C   0  0  0  0  0  0  0  0  0  0  0  0
   -2.7990   -8.5442    0.0000 F   0  0  0  0  0  0  0  0  0  0  0  0
   -5.3971   -7.0442    0.0000 F   0  0  0  0  0  0  0  0  0  0  0  0
   -4.8481   -9.0933    0.0000 C   0  0  0  0  0  0  0  0  0  0  0  0
   -6.1471   -8.3433    0.0000 F   0  0  0  0  0  0  0  0  0  0  0  0
   -3.5490   -9.8433    0.0000 F   0  0  0  0  0  0  0  0  0  0  0  0
   -5.5981  -10.3923    0.0000 C   0  0  0  0  0  0  0  0  0  0  0  0
   -4.2990  -11.1423    0.0000 F   0  0  0  0  0  0  0  0  0  0  0  0
   -6.8971   -9.6423    0.0000 F   0  0  0  0  0  0  0  0  0  0  0  0
   -6.3481  -11.6913    0.0000 C   0  0  0  0  0  0  0  0  0  0  0  0
   -7.6471  -10.9413    0.0000 F   0  0  0  0  0  0  0  0  0  0  0  0
   -5.0490  -12.4413    0.0000 F   0  0  0  0  0  0  0  0  0  0  0  0
   -7.0981  -12.9904    0.0000 C   0  0  0  0  0  0  0  0  0  0  0  0
   -5.7990  -13.7404    0.0000 F   0  0  0  0  0  0  0  0  0  0  0  0
   -8.3971  -12.2404    0.0000 F   0  0  0  0  0  0  0  0  0  0  0  0
   -7.8481  -14.2894    0.0000 C   0  0  0  0  0  0  0  0  0  0  0  0
   -8.5981  -15.5885    0.0000 F   0  0  0  0  0  0  0  0  0  0  0  0
   -9.1471  -13.5394    0.0000 F   0  0  0  0  0  0  0  0  0  0  0  0
   -6.5490  -15.0394    0.0000 F   0  0  0  0  0  0  0  0  0  0  0  0
   -3.3481    1.2990    0.0000 O   0  0  0  0  0  0  0  0  0  0  0  0
   -4.8481    1.2990    0.0000 C   0  0  0  0  0  0  0  0  0  0  0  0
   -5.5981    2.5981    0.0000 C   0  0  0  0  0  0  0  0  0  0  0  0
   -7.0981    2.5981    0.0000 C   0  0  0  0  0  0  0  0  0  0  0  0
   -7.0981    4.0981    0.0000 F   0  0  0  0  0  0  0  0  0  0  0  0
   -7.0981    1.0981    0.0000 F   0  0  0  0  0  0  0  0  0  0  0  0
   -8.5981    2.5981    0.0000 C   0  0  0  0  0  0  0  0  0  0  0  0
   -8.5981    1.0981    0.0000 F   0  0  0  0  0  0  0  0  0  0  0  0
   -8.5981    4.0981    0.0000 F   0  0  0  0  0  0  0  0  0  0  0  0
  -10.0981    2.5981    0.0000 C   0  0  0  0  0  0  0  0  0  0  0  0
  -10.0981    4.0981    0.0000 F   0  0  0  0  0  0  0  0  0  0  0  0
  -10.0981    1.0981    0.0000 F   0  0  0  0  0  0  0  0  0  0  0  0
  -11.5981    2.5981    0.0000 C   0  0  0  0  0  0  0  0  0  0  0  0
  -11.5981    1.0981    0.0000 F   0  0  0  0  0  0  0  0  0  0  0  0
  -11.5981    4.0981    0.0000 F   0  0  0  0  0  0  0  0  0  0  0  0
  -13.0981    2.5981    0.0000 C   0  0  0  0  0  0  0  0  0  0  0  0
  -13.0981    4.0981    0.0000 F   0  0  0  0  0  0  0  0  0  0  0  0
  -13.0981    1.0981    0.0000 F   0  0  0  0  0  0  0  0  0  0  0  0
  -14.5981    2.5981    0.0000 C   0  0  0  0  0  0  0  0  0  0  0  0
  -14.5981    1.0981    0.0000 F   0  0  0  0  0  0  0  0  0  0  0  0
  -14.5981    4.0981    0.0000 F   0  0  0  0  0  0  0  0  0  0  0  0
  -16.0981    2.5981    0.0000 C   0  0  0  0  0  0  0  0  0  0  0  0
  -16.0981    4.0981    0.0000 F   0  0  0  0  0  0  0  0  0  0  0  0
  -16.0981    1.0981    0.0000 F   0  0  0  0  0  0  0  0  0  0  0  0
  -17.5981    2.5981    0.0000 C   0  0  0  0  0  0  0  0  0  0  0  0
  -19.0981    2.5981    0.0000 F   0  0  0  0  0  0  0  0  0  0  0  0
  -17.5981    1.0981    0.0000 F   0  0  0  0  0  0  0  0  0  0  0  0
  -17.5981    4.0981    0.0000 F   0  0  0  0  0  0  0  0  0  0  0  0
  1  2  2  0
  2  3  1  0
  3  4  1  0
  4  5  1  0
  5  6  1  0
  6  7  1  0
  6  8  1  0
  6  9  1  0
  9 10  1  0
  9 11  1  0
  9 12  1  0
 12 13  1  0
 12 14  1  0
 12 15  1  0
 15 16  1  0
 15 17  1  0
 15 18  1  0
 18 19  1  0
 18 20  1  0
 18 21  1  0
 21 22  1  0
 21 23  1  0
 21 24  1  0
 24 25  1  0
 24 26  1  0
 24 27  1  0
 27 28  1  0
 27 29  1  0
 27 30  1  0
  2 31  1  0
 31 32  1  0
 32 33  1  0
 33 34  1  0
 34 35  1  0
 34 36  1  0
 34 37  1  0
 37 38  1  0
 37 39  1  0
 37 40  1  0
 40 41  1  0
 40 42  1  0
 40 43  1  0
 43 44  1  0
 43 45  1  0
 43 46  1  0
 46 47  1  0
 46 48  1  0
 46 49  1  0
 49 50  1  0
 49 51  1  0
 49 52  1  0
 52 53  1  0
 52 54  1  0
 52 55  1  0
 55 56  1  0
 55 57  1  0
 55 58  1  0
  2 59  1  0
 59 60  1  0
 60 61  1  0
 61 62  1  0
 62 63  1  0
 62 64  1  0
 62 65  1  0
 65 66  1  0
 65 67  1  0
 65 68  1  0
 68 69  1  0
 68 70  1  0
 68 71  1  0
 71 72  1  0
 71 73  1  0
 71 74  1  0
 74 75  1  0
 74 76  1  0
 74 77  1  0
 77 78  1  0
 77 79  1  0
 77 80  1  0
 80 81  1  0
 80 82  1  0
 80 83  1  0
 83 84  1  0
 83 85  1  0
 83 86  1  0
M  END
$$$$

     RDKit          2D

 43 42  0  0  0  0  0  0  0  0999 V2000
   -0.0000   -1.5000    0.0000 O   0  0  0  0  0  0  0  0  0  0  0  0
    0.0000    0.0000    0.0000 C   0  0  0  0  0  0  0  0  0  0  0  0
   -1.2990    0.7500    0.0000 O   0  0  0  0  0  0  0  0  0  0  0  0
    1.2990    0.7500    0.0000 C   0  0  0  0  0  0  0  0  0  0  0  0
    2.0490   -0.5490    0.0000 F   0  0  0  0  0  0  0  0  0  0  0  0
    0.5490    2.0490    0.0000 F   0  0  0  0  0  0  0  0  0  0  0  0
    2.5981    1.5000    0.0000 C   0  0  0  0  0  0  0  0  0  0  0  0
    1.8481    2.7990    0.0000 F   0  0  0  0  0  0  0  0  0  0  0  0
    3.3481    0.2010    0.0000 F   0  0  0  0  0  0  0  0  0  0  0  0
    3.8971    2.2500    0.0000 C   0  0  0  0  0  0  0  0  0  0  0  0
    4.6471    0.9510    0.0000 F   0  0  0  0  0  0  0  0  0  0  0  0
    3.1471    3.5490    0.0000 F   0  0  0  0  0  0  0  0  0  0  0  0
    5.1962    3.0000    0.0000 C   0  0  0  0  0  0  0  0  0  0  0  0
    4.4462    4.2990    0.0000 F   0  0  0  0  0  0  0  0  0  0  0  0
    5.9462    1.7010    0.0000 F   0  0  0  0  0  0  0  0  0  0  0  0
    6.4952    3.7500    0.0000 C   0  0  0  0  0  0  0  0  0  0  0  0
    7.2452    2.4510    0.0000 F   0  0  0  0  0  0  0  0  0  0  0  0
    5.7452    5.0490    0.0000 F   0  0  0  0  0  0  0  0  0  0  0  0
    7.7942    4.5000    0.0000 C   0  0  0  0  0  0  0  0  0  0  0  0
    7.0442    5.7990    0.0000 F   0  0  0  0  0  0  0  0  0  0  0  0
    8.5442    3.2010    0.0000 F   0  0  0  0  0  0  0  0  0  0  0  0
    9.0933    5.2500    0.0000 C   0  0  0  0  0  0  0  0  0  0  0  0
    9.8433    3.9510    0.0000 F   0  0  0  0  0  0  0  0  0  0  0  0
    8.3433    6.5490    0.0000 F   0  0  0  0  0  0  0  0  0  0  0  0
   10.3923    6.0000    0.0000 C   0  0  0  0  0  0  0  0  0  0  0  0
    9.6423    7.2990    0.0000 F   0  0  0  0  0  0  0  0  0  0  0  0
   11.1423    4.7010    0.0000 F   0  0  0  0  0  0  0  0  0  0  0  0
   11.6913    6.7500    0.0000 C   0  0  0  0  0  0  0  0  0  0  0  0
   12.4413    5.4510    0.0000 F   0  0  0  0  0  0  0  0  0  0  0  0
   10.9413    8.0490    0.0000 F   0  0  0  0  0  0  0  0  0  0  0  0
   12.9904    7.5000    0.0000 C   0  0  0  0  0  0  0  0  0  0  0  0
   12.2404    8.7990    0.0000 F   0  0  0  0  0  0  0  0  0  0  0  0
   13.7404    6.2010    0.0000 F   0  0  0  0  0  0  0  0  0  0  0  0
   14.2894    8.2500    0.0000 C   0  0  0  0  0  0  0  0  0  0  0  0
   15.0394    6.9510    0.0000 F   0  0  0  0  0  0  0  0  0  0  0  0
   13.5394    9.5490    0.0000 F   0  0  0  0  0  0  0  0  0  0  0  0
   15.5885    9.0000    0.0000 C   0  0  0  0  0  0  0  0  0  0  0  0
   14.8385   10.2990    0.0000 F   0  0  0  0  0  0  0  0  0  0  0  0
   16.3385    7.7010    0.0000 F   0  0  0  0  0  0  0  0  0  0  0  0
   16.8875    9.7500    0.0000 C   0  0  0  0  0  0  0  0  0  0  0  0
   18.1865   10.5000    0.0000 F   0  0  0  0  0  0  0  0  0  0  0  0
   17.6375    8.4510    0.0000 F   0  0  0  0  0  0  0  0  0  0  0  0
   16.1375   11.0490    0.0000 F   0  0  0  0  0  0  0  0  0  0  0  0
  1  2  2  0
  2  3  1  0
  2  4  1  0
  4  5  1  0
  4  6  1  0
  4  7  1  0
  7  8  1  0
  7  9  1  0
  7 10  1  0
 10 11  1  0
 10 12  1  0
 10 13  1  0
 13 14  1  0
 13 15  1  0
 13 16  1  0
 16 17  1  0
 16 18  1  0
 16 19  1  0
 19 20  1  0
 19 21  1  0
 19 22  1  0
 22 23  1  0
 22 24  1  0
 22 25  1  0
 25 26  1  0
 25 27  1  0
 25 28  1  0
 28 29  1  0
 28 30  1  0
 28 31  1  0
 31 32  1  0
 31 33  1  0
 31 34  1  0
 34 35  1  0
 34 36  1  0
 34 37  1  0
 37 38  1  0
 37 39  1  0
 37 40  1  0
 40 41  1  0
 40 42  1  0
 40 43  1  0
M  END
$$$$

     RDKit          2D

 26 25  0  0  0  0  0  0  0  0999 V2000
   -1.2990    0.7500    0.0000 O   0  0  0  0  0  0  0  0  0  0  0  0
    0.0000    0.0000    0.0000 C   0  0  0  0  0  0  0  0  0  0  0  0
    1.2990    0.7500    0.0000 C   0  0  0  0  0  0  0  0  0  0  0  0
    2.0490   -0.5490    0.0000 F   0  0  0  0  0  0  0  0  0  0  0  0
    0.5490    2.0490    0.0000 F   0  0  0  0  0  0  0  0  0  0  0  0
    2.5981    1.5000    0.0000 C   0  0  0  0  0  0  0  0  0  0  0  0
    1.8481    2.7990    0.0000 F   0  0  0  0  0  0  0  0  0  0  0  0
    3.3481    0.2010    0.0000 F   0  0  0  0  0  0  0  0  0  0  0  0
    3.8971    2.2500    0.0000 C   0  0  0  0  0  0  0  0  0  0  0  0
    4.6471    0.9510    0.0000 F   0  0  0  0  0  0  0  0  0  0  0  0
    3.1471    3.5490    0.0000 F   0  0  0  0  0  0  0  0  0  0  0  0
    5.1962    3.0000    0.0000 C   0  0  0  0  0  0  0  0  0  0  0  0
    4.4462    4.2990    0.0000 F   0  0  0  0  0  0  0  0  0  0  0  0
    5.9462    1.7010    0.0000 F   0  0  0  0  0  0  0  0  0  0  0  0
    6.4952    3.7500    0.0000 C   0  0  0  0  0  0  0  0  0  0  0  0
    5.7452    5.0490    0.0000 F   0  0  0  0  0  0  0  0  0  0  0  0
    7.2452    2.4510    0.0000 F   0  0  0  0  0  0  0  0  0  0  0  0
    7.7942    4.5000    0.0000 C   0  0  0  0  0  0  0  0  0  0  0  0
    8.5442    3.2010    0.0000 F   0  0  0  0  0  0  0  0  0  0  0  0
    7.0442    5.7990    0.0000 F   0  0  0  0  0  0  0  0  0  0  0  0
    9.0933    5.2500    0.0000 C   0  0  0  0  0  0  0  0  0  0  0  0
    8.3433    6.5490    0.0000 F   0  0  0  0  0  0  0  0  0  0  0  0
    9.8433    3.9510    0.0000 F   0  0  0  0  0  0  0  0  0  0  0  0
   10.3923    6.0000    0.0000 C   0  0  0  0  0  0  0  0  0  0  0  0
   10.3923    7.5000    0.0000 F   0  0  0  0  0  0  0  0  0  0  0  0
   11.6913    5.2500    0.0000 F   0  0  0  0  0  0  0  0  0  0  0  0
  1  2  1  0
  2  3  1  0
  3  4  1  0
  3  5  1  0
  3  6  1  0
  6  7  1  0
  6  8  1  0
  6  9  1  0
  9 10  1  0
  9 11  1  0
  9 12  1  0
 12 13  1  0
 12 14  1  0
 12 15  1  0
 15 16  1  0
 15 17  1  0
 15 18  1  0
 18 19  1  0
 18 20  1  0
 18 21  1  0
 21 22  1  0
 21 23  1  0
 21 24  1  0
 24 25  1  0
 24 26  1  0
M  END
$$$$

     RDKit          2D

 22 21  0  0  0  0  0  0  0  0999 V2000
    0.0000    0.0000    0.0000 C   0  0  0  0  0  0  0  0  0  0  0  0
    1.2990    0.7500    0.0000 C   0  0  0  0  0  0  0  0  0  0  0  0
    2.5981   -0.0000    0.0000 O   0  0  0  0  0  0  0  0  0  0  0  0
    3.8971    0.7500    0.0000 C   0  0  0  0  0  0  0  0  0  0  0  0
    3.8971    2.2500    0.0000 O   0  0  0  0  0  0  0  0  0  0  0  0
    5.1962   -0.0000    0.0000 C   0  0  0  0  0  0  0  0  0  0  0  0
    5.9462    1.2990    0.0000 F   0  0  0  0  0  0  0  0  0  0  0  0
    4.4462   -1.2990    0.0000 F   0  0  0  0  0  0  0  0  0  0  0  0
    6.4952   -0.7500    0.0000 C   0  0  0  0  0  0  0  0  0  0  0  0
    5.7452   -2.0490    0.0000 F   0  0  0  0  0  0  0  0  0  0  0  0
    7.2452    0.5490    0.0000 F   0  0  0  0  0  0  0  0  0  0  0  0
    7.7942   -1.5000    0.0000 C   0  0  0  0  0  0  0  0  0  0  0  0
    7.0442   -2.7990    0.0000 F   0  0  0  0  0  0  0  0  0  0  0  0
    8.5442   -0.2010    0.0000 F   0  0  0  0  0  0  0  0  0  0  0  0
    9.0933   -2.2500    0.0000 C   0  0  0  0  0  0  0  0  0  0  0  0
    9.8433   -0.9510    0.0000 F   0  0  0  0  0  0  0  0  0  0  0  0
    8.3433   -3.5490    0.0000 F   0  0  0  0  0  0  0  0  0  0  0  0
   10.3923   -3.0000    0.0000 C   0  0  0  0  0  0  0  0  0  0  0  0
   10.3923   -4.5000    0.0000 O   0  0  0  0  0  0  0  0  0  0  0  0
   11.6913   -2.2500    0.0000 O   0  0  0  0  0  0  0  0  0  0  0  0
   12.9904   -3.0000    0.0000 C   0  0  0  0  0  0  0  0  0  0  0  0
   14.2894   -2.2500    0.0000 C   0  0  0  0  0  0  0  0  0  0  0  0
  1  2  1  0
  2  3  1  0
  3  4  1  0
  4  5  2  0
  4  6  1  0
  6  7  1  0
  6  8  1  0
  6  9  1  0
  9 10  1  0
  9 11  1  0
  9 12  1  0
 12 13  1  0
 12 14  1  0
 12 15  1  0
 15 16  1  0
 15 17  1  0
 15 18  1  0
 18 19  2  0
 18 20  1  0
 20 21  1  0
 21 22  1  0
M  END
$$$$

     RDKit          2D

 13 12  0  0  0  0  0  0  0  0999 V2000
   -1.2990    0.7500    0.0000 O   0  0  0  0  0  0  0  0  0  0  0  0
    0.0000    0.0000    0.0000 C   0  0  0  0  0  0  0  0  0  0  0  0
    1.2990    0.7500    0.0000 C   0  0  0  0  0  0  0  0  0  0  0  0
    2.0490   -0.5490    0.0000 F   0  0  0  0  0  0  0  0  0  0  0  0
    0.5490    2.0490    0.0000 F   0  0  0  0  0  0  0  0  0  0  0  0
    2.5981    1.5000    0.0000 C   0  0  0  0  0  0  0  0  0  0  0  0
    1.8481    2.7990    0.0000 F   0  0  0  0  0  0  0  0  0  0  0  0
    3.3481    0.2010    0.0000 F   0  0  0  0  0  0  0  0  0  0  0  0
    3.8971    2.2500    0.0000 C   0  0  0  0  0  0  0  0  0  0  0  0
    3.1471    3.5490    0.0000 F   0  0  0  0  0  0  0  0  0  0  0  0
    4.6471    0.9510    0.0000 F   0  0  0  0  0  0  0  0  0  0  0  0
    5.1962    3.0000    0.0000 C   0  0  0  0  0  0  0  0  0  0  0  0
    5.1962    4.5000    0.0000 O   0  0  0  0  0  0  0  0  0  0  0  0
  1  2  1  0
  2  3  1  0
  3  4  1  0
  3  5  1  0
  3  6  1  0
  6  7  1  0
  6  8  1  0
  6  9  1  0
  9 10  1  0
  9 11  1  0
  9 12  1  0
 12 13  1  0
M  END
$$$$

     RDKit          2D

 16 15  0  0  0  0  0  0  0  0999 V2000
    0.0000    0.0000    0.0000 C   0  0  0  0  0  0  0  0  0  0  0  0
    1.2990    0.7500    0.0000 C   0  0  0  0  0  0  0  0  0  0  0  0
    2.5981   -0.0000    0.0000 O   0  0  0  0  0  0  0  0  0  0  0  0
    3.8971    0.7500    0.0000 C   0  0  0  0  0  0  0  0  0  0  0  0
    3.8971    2.2500    0.0000 O   0  0  0  0  0  0  0  0  0  0  0  0
    5.1962   -0.0000    0.0000 C   0  0  0  0  0  0  0  0  0  0  0  0
    5.9462    1.2990    0.0000 F   0  0  0  0  0  0  0  0  0  0  0  0
    4.4462   -1.2990    0.0000 F   0  0  0  0  0  0  0  0  0  0  0  0
    6.4952   -0.7500    0.0000 C   0  0  0  0  0  0  0  0  0  0  0  0
    7.2452    0.5490    0.0000 F   0  0  0  0  0  0  0  0  0  0  0  0
    5.7452   -2.0490    0.0000 F   0  0  0  0  0  0  0  0  0  0  0  0
    7.7942   -1.5000    0.0000 C   0  0  0  0  0  0  0  0  0  0  0  0
    7.7942   -3.0000    0.0000 O   0  0  0  0  0  0  0  0  0  0  0  0
    9.0933   -0.7500    0.0000 O   0  0  0  0  0  0  0  0  0  0  0  0
   10.3923   -1.5000    0.0000 C   0  0  0  0  0  0  0  0  0  0  0  0
   11.6913   -0.7500    0.0000 C   0  0  0  0  0  0  0  0  0  0  0  0
  1  2  1  0
  2  3  1  0
  3  4  1  0
  4  5  2  0
  4  6  1  0
  6  7  1  0
  6  8  1  0
  6  9  1  0
  9 10  1  0
  9 11  1  0
  9 12  1  0
 12 13  2  0
 12 14  1  0
 14 15  1  0
 15 16  1  0
M  END
$$$$

     RDKit          2D

 11 10  0  0  0  0  0  0  0  0999 V2000
   -1.5000    0.0000    0.0000 F   0  0  0  0  0  0  0  0  0  0  0  0
    0.0000    0.0000    0.0000 C   0  0  0  0  0  0  0  0  0  0  0  0
    0.0000    1.5000    0.0000 F   0  0  0  0  0  0  0  0  0  0  0  0
   -0.0000   -1.5000    0.0000 F   0  0  0  0  0  0  0  0  0  0  0  0
    1.5000    0.0000    0.0000 C   0  0  0  0  0  0  0  0  0  0  0  0
    1.5000   -1.5000    0.0000 F   0  0  0  0  0  0  0  0  0  0  0  0
    1.5000    1.5000    0.0000 F   0  0  0  0  0  0  0  0  0  0  0  0
    3.0000    0.0000    0.0000 C   0  0  0  0  0  0  0  0  0  0  0  0
    4.5000    0.0000    0.0000 F   0  0  0  0  0  0  0  0  0  0  0  0
    3.0000    1.5000    0.0000 F   0  0  0  0  0  0  0  0  0  0  0  0
    3.0000   -1.5000    0.0000 Br  0  0  0  0  0  0  0  0  0  0  0  0
  1  2  1  0
  2  3  1  0
  2  4  1  0
  2  5  1  0
  5  6  1  0
  5  7  1  0
  5  8  1  0
  8  9  1  0
  8 10  1  0
  8 11  1  0
M  END
$$$$

     RDKit          2D

 23 22  0  0  0  0  0  0  0  0999 V2000
    0.0000   -3.0000    0.0000 O   0  0  0  0  0  0  0  0  0  0  0  0
    0.0000   -1.5000    0.0000 S   0  0  0  0  0  0  0  0  0  0  0  0
   -1.5000   -1.5000    0.0000 O   0  0  0  0  0  0  0  0  0  0  0  0
    0.7912   -1.5972    0.0000 F   0  0  0  0  0  0  0  0  0  0  0  0
    0.0000    0.0000    0.0000 C   0  0  0  0  0  0  0  0  0  0  0  0
   -1.5000    0.0000    0.0000 F   0  0  0  0  0  0  0  0  0  0  0  0
    0.0000    1.5000    0.0000 F   0  0  0  0  0  0  0  0  0  0  0  0
    1.5000    0.0000    0.0000 C   0  0  0  0  0  0  0  0  0  0  0  0
    1.5000    1.5000    0.0000 F   0  0  0  0  0  0  0  0  0  0  0  0
    1.6080   -0.8791    0.0000 F   0  0  0  0  0  0  0  0  0  0  0  0
    3.0000    0.0000    0.0000 C   0  0  0  0  0  0  0  0  0  0  0  0
    3.0000   -1.5000    0.0000 F   0  0  0  0  0  0  0  0  0  0  0  0
    3.0000    1.5000    0.0000 F   0  0  0  0  0  0  0  0  0  0  0  0
    4.5000    0.0000    0.0000 C   0  0  0  0  0  0  0  0  0  0  0  0
    4.5000   -1.5000    0.0000 F   0  0  0  0  0  0  0  0  0  0  0  0
    4.5000    1.5000    0.0000 F   0  0  0  0  0  0  0  0  0  0  0  0
    6.0000    0.0000    0.0000 C   0  0  0  0  0  0  0  0  0  0  0  0
    6.0000    1.5000    0.0000 F   0  0  0  0  0  0  0  0  0  0  0  0
    6.0000   -1.5000    0.0000 F   0  0  0  0  0  0  0  0  0  0  0  0
    7.5000    0.0000    0.0000 C   0  0  0  0  0  0  0  0  0  0  0  0
    9.0000    0.0000    0.0000 F   0  0  0  0  0  0  0  0  0  0  0  0
    7.5000   -1.5000    0.0000 F   0  0  0  0  0  0  0  0  0  0  0  0
    7.5000    1.5000    0.0000 F   0  0  0  0  0  0  0  0  0  0  0  0
  1  2  2  0
  2  3  2  0
  2  4  1  0
  2  5  1  0
  5  6  1  0
  5  7  1  0
  5  8  1  0
  8  9  1  0
  8 10  1  0
  8 11  1  0
 11 12  1  0
 11 13  1  0
 11 14  1  0
 14 15  1  0
 14 16  1  0
 14 17  1  0
 17 18  1  0
 17 19  1  0
 17 20  1  0
 20 21  1  0
 20 22  1  0
 20 23  1  0
M  END
$$$$

     RDKit          2D

 38 37  0  0  0  0  0  0  0  0999 V2000
   15.5885    0.0000    0.0000 C   0  0  0  0  0  0  0  0  0  0  0  0
   14.2894    0.7500    0.0000 C   0  0  0  0  0  0  0  0  0  0  0  0
   12.9904    0.0000    0.0000 C   0  0  0  0  0  0  0  0  0  0  0  0
   12.9904   -1.5000    0.0000 O   0  0  0  0  0  0  0  0  0  0  0  0
   11.6913    0.7500    0.0000 O   0  0  0  0  0  0  0  0  0  0  0  0
   10.3923    0.0000    0.0000 C   0  0  0  0  0  0  0  0  0  0  0  0
    9.0933    0.7500    0.0000 C   0  0  0  0  0  0  0  0  0  0  0  0
    7.7942   -0.0000    0.0000 N   0  0  0  0  0  0  0  0  0  0  0  0
    6.4952    0.7500    0.0000 C   0  0  0  0  0  0  0  0  0  0  0  0
    5.1962   -0.0000    0.0000 C   0  0  0  0  0  0  0  0  0  0  0  0
    7.7942   -1.5000    0.0000 S   0  0  0  0  0  0  0  0  0  0  0  0
    9.2942   -1.5000    0.0000 O   0  0  0  0  0  0  0  0  0  0  0  0
    7.0030   -1.4028    0.0000 O   0  0  0  0  0  0  0  0  0  0  0  0
    7.7942   -3.0000    0.0000 C   0  0  0  0  0  0  0  0  0  0  0  0
    9.2942   -3.0000    0.0000 F   0  0  0  0  0  0  0  0  0  0  0  0
    7.7942   -4.5000    0.0000 F   0  0  0  0  0  0  0  0  0  0  0  0
    6.2942   -3.0000    0.0000 C   0  0  0  0  0  0  0  0  0  0  0  0
    6.1863   -2.1209    0.0000 F   0  0  0  0  0  0  0  0  0  0  0  0
    6.2942   -4.5000    0.0000 F   0  0  0  0  0  0  0  0  0  0  0  0
    4.7942   -3.0000    0.0000 C   0  0  0  0  0  0  0  0  0  0  0  0
    4.7942   -1.5000    0.0000 F   0  0  0  0  0  0  0  0  0  0  0  0
    4.7942   -4.5000    0.0000 F   0  0  0  0  0  0  0  0  0  0  0  0
    3.2942   -3.0000    0.0000 C   0  0  0  0  0  0  0  0  0  0  0  0
    3.2942   -1.5000    0.0000 F   0  0  0  0  0  0  0  0  0  0  0  0
    3.2942   -4.5000    0.0000 F   0  0  0  0  0  0  0  0  0  0  0  0
    1.7942   -3.0000    0.0000 C   0  0  0  0  0  0  0  0  0  0  0  0
    1.7942   -4.5000    0.0000 F   0  0  0  0  0  0  0  0  0  0  0  0
    1.7942   -1.5000    0.0000 F   0  0  0  0  0  0  0  0  0  0  0  0
    0.2942   -3.0000    0.0000 C   0  0  0  0  0  0  0  0  0  0  0  0
    0.2942   -4.5000    0.0000 F   0  0  0  0  0  0  0  0  0  0  0  0
    0.2942   -1.5000    0.0000 F   0  0  0  0  0  0  0  0  0  0  0  0
   -1.2058   -3.0000    0.0000 C   0  0  0  0  0  0  0  0  0  0  0  0
   -1.2058   -1.5000    0.0000 F   0  0  0  0  0  0  0  0  0  0  0  0
   -1.2058   -4.5000    0.0000 F   0  0  0  0  0  0  0  0  0  0  0  0
   -2.7058   -3.0000    0.0000 C   0  0  0  0  0  0  0  0  0  0  0  0
   -4.2058   -3.0000    0.0000 F   0  0  0  0  0  0  0  0  0  0  0  0
   -2.7058   -4.5000    0.0000 F   0  0  0  0  0  0  0  0  0  0  0  0
   -2.7058   -1.5000    0.0000 F   0  0  0  0  0  0  0  0  0  0  0  0
  1  2  2  0
  2  3  1  0
  3  4  2  0
  3  5  1  0
  5  6  1  0
  6  7  1  0
  7  8  1  0
  8  9  1  0
  9 10  1  0
  8 11  1  0
 11 12  2  0
 11 13  2  0
 11 14  1  0
 14 15  1  0
 14 16  1  0
 14 17  1  0
 17 18  1  0
 17 19  1  0
 17 20  1  0
 20 21  1  0
 20 22  1  0
 20 23  1  0
 23 24  1  0
 23 25  1  0
 23 26  1  0
 26 27  1  0
 26 28  1  0
 26 29  1  0
 29 30  1  0
 29 31  1  0
 29 32  1  0
 32 33  1  0
 32 34  1  0
 32 35  1  0
 35 36  1  0
 35 37  1  0
 35 38  1  0
M  END
$$$$

     RDKit          2D

 19 18  0  0  0  0  0  0  0  0999 V2000
    0.0000    0.0000    0.0000 C   0  0  0  0  0  0  0  0  0  0  0  0
    1.2990    0.7500    0.0000 C   0  0  0  0  0  0  0  0  0  0  0  0
    2.5981   -0.0000    0.0000 O   0  0  0  0  0  0  0  0  0  0  0  0
    3.8971    0.7500    0.0000 C   0  0  0  0  0  0  0  0  0  0  0  0
    3.8971    2.2500    0.0000 O   0  0  0  0  0  0  0  0  0  0  0  0
    5.1962   -0.0000    0.0000 C   0  0  0  0  0  0  0  0  0  0  0  0
    5.9462    1.2990    0.0000 F   0  0  0  0  0  0  0  0  0  0  0  0
    4.4462   -1.2990    0.0000 F   0  0  0  0  0  0  0  0  0  0  0  0
    6.4952   -0.7500    0.0000 C   0  0  0  0  0  0  0  0  0  0  0  0
    5.7452   -2.0490    0.0000 F   0  0  0  0  0  0  0  0  0  0  0  0
    7.2452    0.5490    0.0000 F   0  0  0  0  0  0  0  0  0  0  0  0
    7.7942   -1.5000    0.0000 C   0  0  0  0  0  0  0  0  0  0  0  0
    7.0442   -2.7990    0.0000 F   0  0  0  0  0  0  0  0  0  0  0  0
    8.5442   -0.2010    0.0000 F   0  0  0  0  0  0  0  0  0  0  0  0
    9.0933   -2.2500    0.0000 C   0  0  0  0  0  0  0  0  0  0  0  0
   10.3923   -1.5000    0.0000 O   0  0  0  0  0  0  0  0  0  0  0  0
    9.0933   -3.7500    0.0000 O   0  0  0  0  0  0  0  0  0  0  0  0
   10.3923   -4.5000    0.0000 C   0  0  0  0  0  0  0  0  0  0  0  0
   10.3923   -6.0000    0.0000 C   0  0  0  0  0  0  0  0  0  0  0  0
  1  2  1  0
  2  3  1  0
  3  4  1  0
  4  5  2  0
  4  6  1  0
  6  7  1  0
  6  8  1  0
  6  9  1  0
  9 10  1  0
  9 11  1  0
  9 12  1  0
 12 13  1  0
 12 14  1  0
 12 15  1  0
 15 16  2  0
 15 17  1  0
 17 18  1  0
 18 19  1  0
M  END
$$$$

     RDKit          2D

 29 29  0  0  0  0  0  0  0  0999 V2000
   15.5260   -1.2990    0.0000 F   0  0  0  0  0  0  0  0  0  0  0  0
   14.0260   -1.2990    0.0000 C   0  0  0  0  0  0  0  0  0  0  0  0
   14.0260   -2.7990    0.0000 F   0  0  0  0  0  0  0  0  0  0  0  0
   14.0260    0.2010    0.0000 F   0  0  0  0  0  0  0  0  0  0  0  0
   12.5260   -1.2990    0.0000 C   0  0  0  0  0  0  0  0  0  0  0  0
   12.5260    0.2010    0.0000 F   0  0  0  0  0  0  0  0  0  0  0  0
   12.5260   -2.7990    0.0000 F   0  0  0  0  0  0  0  0  0  0  0  0
   11.0260   -1.2990    0.0000 C   0  0  0  0  0  0  0  0  0  0  0  0
   11.0260   -2.7990    0.0000 F   0  0  0  0  0  0  0  0  0  0  0  0
   11.0260    0.2010    0.0000 F   0  0  0  0  0  0  0  0  0  0  0  0
    9.5260   -1.2990    0.0000 C   0  0  0  0  0  0  0  0  0  0  0  0
    9.5260    0.2010    0.0000 F   0  0  0  0  0  0  0  0  0  0  0  0
    9.5260   -2.7990    0.0000 F   0  0  0  0  0  0  0  0  0  0  0  0
    8.0260   -1.2990    0.0000 C   0  0  0  0  0  0  0  0  0  0  0  0
    8.0260   -2.7990    0.0000 F   0  0  0  0  0  0  0  0  0  0  0  0
    8.0260    0.2010    0.0000 F   0  0  0  0  0  0  0  0  0  0  0  0
    6.5260   -1.2990    0.0000 C   0  0  0  0  0  0  0  0  0  0  0  0
    6.5260    0.2010    0.0000 F   0  0  0  0  0  0  0  0  0  0  0  0
    6.5260   -2.7990    0.0000 F   0  0  0  0  0  0  0  0  0  0  0  0
    5.0260   -1.2990    0.0000 C   0  0  0  0  0  0  0  0  0  0  0  0
    5.0260   -2.7990    0.0000 F   0  0  0  0  0  0  0  0  0  0  0  0
    5.0260    0.2010    0.0000 F   0  0  0  0  0  0  0  0  0  0  0  0
    3.5260   -1.2990    0.0000 C   0  0  0  0  0  0  0  0  0  0  0  0
    2.7760    0.0000    0.0000 O   0  0  0  0  0  0  0  0  0  0  0  0
    1.2760    0.0000    0.0000 C   0  0  0  0  0  0  0  0  0  0  0  0
    0.3943    1.2135    0.0000 C   0  0  0  0  0  0  0  0  0  0  0  0
   -1.0323    0.7500    0.0000 C   0  0  0  0  0  0  0  0  0  0  0  0
   -1.0323   -0.7500    0.0000 S   0  0  0  0  0  0  0  0  0  0  0  0
    0.3943   -1.2135    0.0000 C   0  0  0  0  0  0  0  0  0  0  0  0
  1  2  1  0
  2  3  1  0
  2  4  1  0
  2  5  1  0
  5  6  1  0
  5  7  1  0
  5  8  1  0
  8  9  1  0
  8 10  1  0
  8 11  1  0
 11 12  1  0
 11 13  1  0
 11 14  1  0
 14 15  1  0
 14 16  1  0
 14 17  1  0
 17 18  1  0
 17 19  1  0
 17 20  1  0
 20 21  1  0
 20 22  1  0
 20 23  1  0
 23 24  1  0
 24 25  1  0
 25 26  1  0
 26 27  2  0
 27 28  1  0
 28 29  1  0
 29 25  2  0
M  END
$$$$

     RDKit          2D

 11 10  0  0  0  0  0  0  0  0999 V2000
    0.0000    0.0000    0.0000 C   0  0  0  0  0  0  0  0  0  0  0  0
    1.2990    0.7500    0.0000 C   0  0  0  0  0  0  0  0  0  0  0  0
    2.5981   -0.0000    0.0000 C   0  0  0  0  0  0  0  0  0  0  0  0
    3.8971    0.7500    0.0000 O   0  0  0  0  0  0  0  0  0  0  0  0
    5.1962   -0.0000    0.0000 C   0  0  0  0  0  0  0  0  0  0  0  0
    4.4462   -1.2990    0.0000 F   0  0  0  0  0  0  0  0  0  0  0  0
    5.9462    1.2990    0.0000 F   0  0  0  0  0  0  0  0  0  0  0  0
    6.4952   -0.7500    0.0000 C   0  0  0  0  0  0  0  0  0  0  0  0
    7.7942   -1.5000    0.0000 F   0  0  0  0  0  0  0  0  0  0  0  0
    5.7452   -2.0490    0.0000 F   0  0  0  0  0  0  0  0  0  0  0  0
    7.2452    0.5490    0.0000 F   0  0  0  0  0  0  0  0  0  0  0  0
  1  2  2  0
  2  3  1  0
  3  4  1  0
  4  5  1  0
  5  6  1  0
  5  7  1  0
  5  8  1  0
  8  9  1  0
  8 10  1  0
  8 11  1  0
M  END
$$$$

     RDKit          2D

 16 16  0  0  0  0  0  0  0  0999 V2000
    3.7500   -1.2990    0.0000 C   0  0  0  0  0  0  0  0  0  0  0  0
    3.0000    0.0000    0.0000 C   0  0  0  0  0  0  0  0  0  0  0  0
    3.7500    1.2990    0.0000 O   0  0  0  0  0  0  0  0  0  0  0  0
    1.5000    0.0000    0.0000 C   0  0  0  0  0  0  0  0  0  0  0  0
    0.7500   -1.2990    0.0000 C   0  0  0  0  0  0  0  0  0  0  0  0
   -0.7500   -1.2990    0.0000 C   0  0  0  0  0  0  0  0  0  0  0  0
   -1.5000    0.0000    0.0000 C   0  0  0  0  0  0  0  0  0  0  0  0
   -3.0000    0.0000    0.0000 O   0  0  0  0  0  0  0  0  0  0  0  0
   -3.7500    1.2990    0.0000 C   0  0  0  0  0  0  0  0  0  0  0  0
   -2.4510    2.0490    0.0000 F   0  0  0  0  0  0  0  0  0  0  0  0
   -5.0490    0.5490    0.0000 F   0  0  0  0  0  0  0  0  0  0  0  0
   -4.5000    2.5981    0.0000 C   0  0  0  0  0  0  0  0  0  0  0  0
   -3.7500    3.8971    0.0000 F   0  0  0  0  0  0  0  0  0  0  0  0
   -6.0000    2.5981    0.0000 F   0  0  0  0  0  0  0  0  0  0  0  0
   -0.7500    1.2990    0.0000 C   0  0  0  0  0  0  0  0  0  0  0  0
    0.7500    1.2990    0.0000 C   0  0  0  0  0  0  0  0  0  0  0  0
  1  2  1  0
  2  3  2  0
  2  4  1  0
  4  5  2  0
  5  6  1  0
  6  7  2  0
  7  8  1  0
  8  9  1  0
  9 10  1  0
  9 11  1  0
  9 12  1  0
 12 13  1  0
 12 14  1  0
  7 15  1  0
 15 16  2  0
 16  4  1  0
M  END
$$$$

     RDKit          2D

 18 18  0  0  0  0  0  0  0  0999 V2000
    4.5000   -2.5981    0.0000 O   0  0  0  0  0  0  0  0  0  0  0  0
    3.7500   -1.2990    0.0000 C   0  0  0  0  0  0  0  0  0  0  0  0
    3.0000    0.0000    0.0000 N   0  0  0  0  0  0  0  0  0  0  0  0
    1.5000    0.0000    0.0000 C   0  0  0  0  0  0  0  0  0  0  0  0
    0.7500   -1.2990    0.0000 C   0  0  0  0  0  0  0  0  0  0  0  0
   -0.7500   -1.2990    0.0000 C   0  0  0  0  0  0  0  0  0  0  0  0
   -1.5000   -2.5981    0.0000 Cl  0  0  0  0  0  0  0  0  0  0  0  0
   -1.5000    0.0000    0.0000 C   0  0  0  0  0  0  0  0  0  0  0  0
   -3.0000    0.0000    0.0000 O   0  0  0  0  0  0  0  0  0  0  0  0
   -3.7500    1.2990    0.0000 C   0  0  0  0  0  0  0  0  0  0  0  0
   -2.4510    2.0490    0.0000 F   0  0  0  0  0  0  0  0  0  0  0  0
   -5.0490    0.5490    0.0000 F   0  0  0  0  0  0  0  0  0  0  0  0
   -4.5000    2.5981    0.0000 C   0  0  0  0  0  0  0  0  0  0  0  0
   -3.7500    3.8971    0.0000 F   0  0  0  0  0  0  0  0  0  0  0  0
   -6.0000    2.5981    0.0000 F   0  0  0  0  0  0  0  0  0  0  0  0
   -0.7500    1.2990    0.0000 C   0  0  0  0  0  0  0  0  0  0  0  0
   -1.5000    2.5981    0.0000 Cl  0  0  0  0  0  0  0  0  0  0  0  0
    0.7500    1.2990    0.0000 C   0  0  0  0  0  0  0  0  0  0  0  0
  1  2  2  0
  2  3  2  0
  3  4  1  0
  4  5  2  0
  5  6  1  0
  6  7  1  0
  6  8  2  0
  8  9  1  0
  9 10  1  0
 10 11  1  0
 10 12  1  0
 10 13  1  0
 13 14  1  0
 13 15  1  0
  8 16  1  0
 16 17  1  0
 16 18  2  0
 18  4  1  0
M  END
$$$$

     RDKit          2D

 14 14  0  0  0  0  0  0  0  0999 V2000
    2.7760    0.0000    0.0000 F   0  0  0  0  0  0  0  0  0  0  0  0
    1.2760    0.0000    0.0000 C   0  0  0  0  0  0  0  0  0  0  0  0
    0.3943    1.2135    0.0000 C   0  0  0  0  0  0  0  0  0  0  0  0
   -1.0323    0.7500    0.0000 O   0  0  0  0  0  0  0  0  0  0  0  0
   -1.0323   -0.7500    0.0000 C   0  0  0  0  0  0  0  0  0  0  0  0
   -1.3442   -2.2172    0.0000 C   0  0  0  0  0  0  0  0  0  0  0  0
   -1.6560   -3.6844    0.0000 F   0  0  0  0  0  0  0  0  0  0  0  0
    0.1231   -2.5291    0.0000 F   0  0  0  0  0  0  0  0  0  0  0  0
   -2.1383   -2.1478    0.0000 F   0  0  0  0  0  0  0  0  0  0  0  0
   -2.5241   -0.5932    0.0000 C   0  0  0  0  0  0  0  0  0  0  0  0
   -4.0159   -0.4364    0.0000 F   0  0  0  0  0  0  0  0  0  0  0  0
   -2.7034   -1.3699    0.0000 F   0  0  0  0  0  0  0  0  0  0  0  0
   -2.3673    0.8986    0.0000 F   0  0  0  0  0  0  0  0  0  0  0  0
    0.3943   -1.2135    0.0000 O   0  0  0  0  0  0  0  0  0  0  0  0
  1  2  1  0
  2  3  2  0
  3  4  1  0
  4  5  1  0
  5  6  1  0
  6  7  1  0
  6  8  1  0
  6  9  1  0
  5 10  1  0
 10 11  1  0
 10 12  1  0
 10 13  1  0
  5 14  1  0
 14  2  1  0
M  END
$$$$

     RDKit          2D

 19 19  0  0  0  0  0  0  0  0999 V2000
    3.7500   -1.2990    0.0000 C   0  0  0  0  0  0  0  0  0  0  0  0
    3.0000    0.0000    0.0000 O   0  0  0  0  0  0  0  0  0  0  0  0
    1.5000    0.0000    0.0000 C   0  0  0  0  0  0  0  0  0  0  0  0
    0.7500   -1.2990    0.0000 C   0  0  0  0  0  0  0  0  0  0  0  0
   -0.7500   -1.2990    0.0000 C   0  0  0  0  0  0  0  0  0  0  0  0
   -1.5000   -2.5981    0.0000 C   0  0  0  0  0  0  0  0  0  0  0  0
   -0.2010   -3.3481    0.0000 O   0  0  0  0  0  0  0  0  0  0  0  0
   -2.2500   -3.8971    0.0000 C   0  0  0  0  0  0  0  0  0  0  0  0
   -3.0000   -5.1962    0.0000 F   0  0  0  0  0  0  0  0  0  0  0  0
   -0.9510   -4.6471    0.0000 F   0  0  0  0  0  0  0  0  0  0  0  0
   -3.0653   -3.5511    0.0000 F   0  0  0  0  0  0  0  0  0  0  0  0
   -2.7990   -1.8481    0.0000 C   0  0  0  0  0  0  0  0  0  0  0  0
   -4.0981   -1.0981    0.0000 F   0  0  0  0  0  0  0  0  0  0  0  0
   -2.3857   -0.4062    0.0000 F   0  0  0  0  0  0  0  0  0  0  0  0
   -3.3321   -2.5554    0.0000 F   0  0  0  0  0  0  0  0  0  0  0  0
   -1.5000    0.0000    0.0000 C   0  0  0  0  0  0  0  0  0  0  0  0
   -0.7500    1.2990    0.0000 C   0  0  0  0  0  0  0  0  0  0  0  0
    0.7500    1.2990    0.0000 C   0  0  0  0  0  0  0  0  0  0  0  0
    1.5000    2.5981    0.0000 N   0  0  0  0  0  0  0  0  0  0  0  0
  1  2  1  0
  2  3  1  0
  3  4  2  0
  4  5  1  0
  5  6  1  0
  6  7  1  0
  6  8  1  0
  8  9  1  0
  8 10  1  0
  8 11  1  0
  6 12  1  0
 12 13  1  0
 12 14  1  0
 12 15  1  0
  5 16  2  0
 16 17  1  0
 17 18  2  0
 18 19  1  0
 18  3  1  0
M  END
$$$$

     RDKit          2D

 29 30  0  0  0  0  0  0  0  0999 V2000
    0.0000    3.4138    0.0000 Cl  0  0  0  0  0  0  0  0  0  0  0  0
    3.0000    0.0000    0.0000 F   0  0  0  0  0  0  0  0  0  0  0  0
    1.5000    0.0000    0.0000 C   0  0  0  0  0  0  0  0  0  0  0  0
    0.7500   -1.2990    0.0000 C   0  0  0  0  0  0  0  0  0  0  0  0
   -0.7500   -1.2990    0.0000 C   0  0  0  0  0  0  0  0  0  0  0  0
   -1.5000    0.0000    0.0000 C   0  0  0  0  0  0  0  0  0  0  0  0
   -2.9672    0.3119    0.0000 C   0  0  0  0  0  0  0  0  0  0  0  0
   -4.0819   -0.6918    0.0000 C   0  0  0  0  0  0  0  0  0  0  0  0
   -5.5085   -0.2283    0.0000 C   0  0  0  0  0  0  0  0  0  0  0  0
   -6.6232   -1.2320    0.0000 N   0  0  0  0  0  0  0  0  0  0  0  0
   -8.0498   -0.7685    0.0000 C   0  0  0  0  0  0  0  0  0  0  0  0
   -9.1645   -1.7722    0.0000 C   0  0  0  0  0  0  0  0  0  0  0  0
  -10.5911   -1.3086    0.0000 C   0  0  0  0  0  0  0  0  0  0  0  0
  -11.7058   -2.3123    0.0000 C   0  0  0  0  0  0  0  0  0  0  0  0
  -11.3940   -3.7796    0.0000 C   0  0  0  0  0  0  0  0  0  0  0  0
   -9.9674   -4.2431    0.0000 C   0  0  0  0  0  0  0  0  0  0  0  0
   -9.6555   -5.7103    0.0000 O   0  0  0  0  0  0  0  0  0  0  0  0
  -10.7702   -6.7140    0.0000 C   0  0  0  0  0  0  0  0  0  0  0  0
  -10.4584   -8.1812    0.0000 C   0  0  0  0  0  0  0  0  0  0  0  0
  -11.9256   -8.4931    0.0000 F   0  0  0  0  0  0  0  0  0  0  0  0
   -8.9912   -7.8694    0.0000 F   0  0  0  0  0  0  0  0  0  0  0  0
  -10.1465   -9.6484    0.0000 C   0  0  0  0  0  0  0  0  0  0  0  0
   -8.7199  -10.1120    0.0000 F   0  0  0  0  0  0  0  0  0  0  0  0
  -11.2612  -10.6521    0.0000 F   0  0  0  0  0  0  0  0  0  0  0  0
   -8.8527   -3.2394    0.0000 C   0  0  0  0  0  0  0  0  0  0  0  0
   -3.1240    1.8037    0.0000 C   0  0  0  0  0  0  0  0  0  0  0  0
   -1.7537    2.4138    0.0000 N   0  0  0  0  0  0  0  0  0  0  0  0
   -0.7500    1.2990    0.0000 C   0  0  0  0  0  0  0  0  0  0  0  0
    0.7500    1.2990    0.0000 C   0  0  0  0  0  0  0  0  0  0  0  0
  2  3  1  0
  3  4  2  0
  4  5  1  0
  5  6  2  0
  6  7  1  0
  7  8  1  0
  8  9  1  0
  9 10  1  0
 10 11  1  0
 11 12  1  0
 12 13  2  0
 13 14  1  0
 14 15  2  0
 15 16  1  0
 16 17  1  0
 17 18  1  0
 18 19  1  0
 19 20  1  0
 19 21  1  0
 19 22  1  0
 22 23  1  0
 22 24  1  0
 16 25  2  0
  7 26  2  0
 26 27  1  0
 27 28  1  0
 28 29  2  0
 29  3  1  0
 28  6  1  0
 25 12  1  0
M  END
$$$$

     RDKit          2D

 16 16  0  0  0  0  0  0  0  0999 V2000
    3.0000    1.5000    0.0000 O   0  0  0  0  0  0  0  0  0  0  0  0
    3.0000    0.0000    0.0000 C   0  0  0  0  0  0  0  0  0  0  0  0
    1.5000    0.0000    0.0000 C   0  0  0  0  0  0  0  0  0  0  0  0
    0.7500   -1.2990    0.0000 C   0  0  0  0  0  0  0  0  0  0  0  0
   -0.7500   -1.2990    0.0000 C   0  0  0  0  0  0  0  0  0  0  0  0
   -1.5000    0.0000    0.0000 C   0  0  0  0  0  0  0  0  0  0  0  0
   -0.7500    1.2990    0.0000 C   0  0  0  0  0  0  0  0  0  0  0  0
    0.7500    1.2990    0.0000 C   0  0  0  0  0  0  0  0  0  0  0  0
    4.5000    0.0000    0.0000 C   0  0  0  0  0  0  0  0  0  0  0  0
    6.0000    0.0000    0.0000 F   0  0  0  0  0  0  0  0  0  0  0  0
    4.5000    1.5000    0.0000 F   0  0  0  0  0  0  0  0  0  0  0  0
    4.6080   -0.8791    0.0000 F   0  0  0  0  0  0  0  0  0  0  0  0
    3.0000   -1.5000    0.0000 C   0  0  0  0  0  0  0  0  0  0  0  0
    3.0000   -3.0000    0.0000 F   0  0  0  0  0  0  0  0  0  0  0  0
    3.8791   -1.6080    0.0000 F   0  0  0  0  0  0  0  0  0  0  0  0
    1.5446   -1.8630    0.0000 F   0  0  0  0  0  0  0  0  0  0  0  0
  1  2  1  0
  2  3  1  0
  3  4  2  0
  4  5  1  0
  5  6  2  0
  6  7  1  0
  7  8  2  0
  2  9  1  0
  9 10  1  0
  9 11  1  0
  9 12  1  0
  2 13  1  0
 13 14  1  0
 13 15  1  0
 13 16  1  0
  8  3  1  0
M  END
$$$$

     RDKit          2D

 19 19  0  0  0  0  0  0  0  0999 V2000
    3.0000    0.0000    0.0000 C   0  0  0  0  0  0  0  0  0  0  0  0
    1.5000    0.0000    0.0000 C   0  0  0  0  0  0  0  0  0  0  0  0
    0.7500   -1.2990    0.0000 C   0  0  0  0  0  0  0  0  0  0  0  0
   -0.7500   -1.2990    0.0000 C   0  0  0  0  0  0  0  0  0  0  0  0
   -1.5000    0.0000    0.0000 C   0  0  0  0  0  0  0  0  0  0  0  0
   -3.0000    0.0000    0.0000 C   0  0  0  0  0  0  0  0  0  0  0  0
   -3.7500   -1.2990    0.0000 O   0  0  0  0  0  0  0  0  0  0  0  0
   -3.7500    1.2990    0.0000 C   0  0  0  0  0  0  0  0  0  0  0  0
   -5.0490    0.5490    0.0000 F   0  0  0  0  0  0  0  0  0  0  0  0
   -2.4510    2.0490    0.0000 F   0  0  0  0  0  0  0  0  0  0  0  0
   -4.5000    2.5981    0.0000 C   0  0  0  0  0  0  0  0  0  0  0  0
   -3.2010    3.3481    0.0000 F   0  0  0  0  0  0  0  0  0  0  0  0
   -5.7990    1.8481    0.0000 F   0  0  0  0  0  0  0  0  0  0  0  0
   -5.2500    3.8971    0.0000 C   0  0  0  0  0  0  0  0  0  0  0  0
   -6.0000    5.1962    0.0000 F   0  0  0  0  0  0  0  0  0  0  0  0
   -6.5490    3.1471    0.0000 F   0  0  0  0  0  0  0  0  0  0  0  0
   -3.9510    4.6471    0.0000 F   0  0  0  0  0  0  0  0  0  0  0  0
   -0.7500    1.2990    0.0000 C   0  0  0  0  0  0  0  0  0  0  0  0
    0.7500    1.2990    0.0000 C   0  0  0  0  0  0  0  0  0  0  0  0
  1  2  1  0
  2  3  2  0
  3  4  1  0
  4  5  2  0
  5  6  1  0
  6  7  2  0
  6  8  1  0
  8  9  1  0
  8 10  1  0
  8 11  1  0
 11 12  1  0
 11 13  1  0
 11 14  1  0
 14 15  1  0
 14 16  1  0
 14 17  1  0
  5 18  1  0
 18 19  2  0
 19  2  1  0
M  END
$$$$

     RDKit          2D

 21 21  0  0  0  0  0  0  0  0999 V2000
    3.0000    0.0000    0.0000 N   0  0  0  0  0  0  0  0  0  0  0  0
    1.5000    0.0000    0.0000 C   0  0  0  0  0  0  0  0  0  0  0  0
    0.7500   -1.2990    0.0000 C   0  0  0  0  0  0  0  0  0  0  0  0
   -0.7500   -1.2990    0.0000 C   0  0  0  0  0  0  0  0  0  0  0  0
   -1.5000    0.0000    0.0000 C   0  0  0  0  0  0  0  0  0  0  0  0
   -3.0000    0.0000    0.0000 N   0  0  0  0  0  0  0  0  0  0  0  0
   -3.7500    1.2990    0.0000 C   0  0  0  0  0  0  0  0  0  0  0  0
   -3.0000    2.5981    0.0000 O   0  0  0  0  0  0  0  0  0  0  0  0
   -5.2500    1.2990    0.0000 C   0  0  0  0  0  0  0  0  0  0  0  0
   -5.2500    2.7990    0.0000 F   0  0  0  0  0  0  0  0  0  0  0  0
   -5.2500   -0.2010    0.0000 F   0  0  0  0  0  0  0  0  0  0  0  0
   -6.7500    1.2990    0.0000 C   0  0  0  0  0  0  0  0  0  0  0  0
   -6.7500   -0.2010    0.0000 F   0  0  0  0  0  0  0  0  0  0  0  0
   -6.7500    2.7990    0.0000 F   0  0  0  0  0  0  0  0  0  0  0  0
   -8.2500    1.2990    0.0000 C   0  0  0  0  0  0  0  0  0  0  0  0
   -9.7500    1.2990    0.0000 F   0  0  0  0  0  0  0  0  0  0  0  0
   -8.2500    2.7990    0.0000 F   0  0  0  0  0  0  0  0  0  0  0  0
   -8.2500   -0.2010    0.0000 F   0  0  0  0  0  0  0  0  0  0  0  0
   -0.7500    1.2990    0.0000 C   0  0  0  0  0  0  0  0  0  0  0  0
   -1.5000    2.5981    0.0000 O   0  0  0  0  0  0  0  0  0  0  0  0
    0.7500    1.2990    0.0000 C   0  0  0  0  0  0  0  0  0  0  0  0
  1  2  1  0
  2  3  2  0
  3  4  1  0
  4  5  2  0
  5  6  1  0
  6  7  1  0
  7  8  2  0
  7  9  1  0
  9 10  1  0
  9 11  1  0
  9 12  1  0
 12 13  1  0
 12 14  1  0
 12 15  1  0
 15 16  1  0
 15 17  1  0
 15 18  1  0
  5 19  1  0
 19 20  1  0
 19 21  2  0
 21  2  1  0
M  END
$$$$

     RDKit          2D

 18 19  0  0  0  0  0  0  0  0999 V2000
   -2.8649    2.5126    0.0000 O   0  0  0  0  0  0  0  0  0  0  0  0
   -4.1640    1.7626    0.0000 C   0  0  0  0  0  0  0  0  0  0  0  0
   -3.4140    0.4635    0.0000 C   0  0  0  0  0  0  0  0  0  0  0  0
   -1.9140    0.4635    0.0000 C   0  0  0  0  0  0  0  0  0  0  0  0
   -1.0323    1.6771    0.0000 C   0  0  0  0  0  0  0  0  0  0  0  0
    0.3943    1.2135    0.0000 C   0  0  0  0  0  0  0  0  0  0  0  0
    1.2760    0.0000    0.0000 C   0  0  0  0  0  0  0  0  0  0  0  0
    0.3943   -1.2135    0.0000 C   0  0  0  0  0  0  0  0  0  0  0  0
   -1.0323   -0.7500    0.0000 C   0  0  0  0  0  0  0  0  0  0  0  0
   -1.0323    0.7500    0.0000 C   0  0  0  0  0  0  0  0  0  0  0  0
   -4.9140    3.0616    0.0000 C   0  0  0  0  0  0  0  0  0  0  0  0
   -5.6640    4.3606    0.0000 F   0  0  0  0  0  0  0  0  0  0  0  0
   -3.6149    3.8116    0.0000 F   0  0  0  0  0  0  0  0  0  0  0  0
   -5.7293    2.7155    0.0000 F   0  0  0  0  0  0  0  0  0  0  0  0
   -5.4630    1.0126    0.0000 C   0  0  0  0  0  0  0  0  0  0  0  0
   -6.7620    0.2626    0.0000 F   0  0  0  0  0  0  0  0  0  0  0  0
   -4.7130   -0.2865    0.0000 F   0  0  0  0  0  0  0  0  0  0  0  0
   -5.9961    1.7199    0.0000 F   0  0  0  0  0  0  0  0  0  0  0  0
  1  2  1  0
  2  3  1  0
  3  4  1  0
  4  5  1  0
  5  6  1  0
  6  7  1  0
  7  8  2  0
  8  9  1  0
  9 10  1  0
  2 11  1  0
 11 12  1  0
 11 13  1  0
 11 14  1  0
  2 15  1  0
 15 16  1  0
 15 17  1  0
 15 18  1  0
  9  4  1  0
 10  6  1  0
M  END
$$$$

     RDKit          2D

 25 27  0  0  0  0  0  0  0  0999 V2000
    6.1568   -3.2950    0.0000 F   0  0  0  0  0  0  0  0  0  0  0  0
    4.7302   -3.7586    0.0000 C   0  0  0  0  0  0  0  0  0  0  0  0
    5.0671   -4.4810    0.0000 F   0  0  0  0  0  0  0  0  0  0  0  0
    4.2667   -2.3320    0.0000 F   0  0  0  0  0  0  0  0  0  0  0  0
    3.3037   -4.2221    0.0000 C   0  0  0  0  0  0  0  0  0  0  0  0
    3.9138   -5.5924    0.0000 C   0  0  0  0  0  0  0  0  0  0  0  0
    4.5239   -6.9627    0.0000 F   0  0  0  0  0  0  0  0  0  0  0  0
    2.7318   -6.5160    0.0000 F   0  0  0  0  0  0  0  0  0  0  0  0
    4.6761   -5.3594    0.0000 F   0  0  0  0  0  0  0  0  0  0  0  0
    2.9918   -2.7549    0.0000 N   0  0  0  0  0  0  0  0  0  0  0  0
    1.5000   -2.5981    0.0000 C   0  0  0  0  0  0  0  0  0  0  0  0
    0.7500   -1.2990    0.0000 C   0  0  0  0  0  0  0  0  0  0  0  0
    1.5000    0.0000    0.0000 C   0  0  0  0  0  0  0  0  0  0  0  0
    0.7500    1.2990    0.0000 C   0  0  0  0  0  0  0  0  0  0  0  0
   -0.7500    1.2990    0.0000 C   0  0  0  0  0  0  0  0  0  0  0  0
   -1.5000    0.0000    0.0000 C   0  0  0  0  0  0  0  0  0  0  0  0
   -0.7500   -1.2990    0.0000 C   0  0  0  0  0  0  0  0  0  0  0  0
    0.8899   -3.9684    0.0000 O   0  0  0  0  0  0  0  0  0  0  0  0
    2.0046   -4.9721    0.0000 N   0  0  0  0  0  0  0  0  0  0  0  0
    1.8478   -6.4639    0.0000 C   0  0  0  0  0  0  0  0  0  0  0  0
    0.4775   -7.0740    0.0000 C   0  0  0  0  0  0  0  0  0  0  0  0
    0.3207   -8.5658    0.0000 C   0  0  0  0  0  0  0  0  0  0  0  0
    1.5342   -9.4474    0.0000 C   0  0  0  0  0  0  0  0  0  0  0  0
    2.9046   -8.8373    0.0000 C   0  0  0  0  0  0  0  0  0  0  0  0
    3.0613   -7.3456    0.0000 C   0  0  0  0  0  0  0  0  0  0  0  0
  1  2  1  0
  2  3  1  0
  2  4  1  0
  2  5  1  0
  5  6  1  0
  6  7  1  0
  6  8  1  0
  6  9  1  0
  5 10  1  0
 10 11  2  0
 11 12  1  0
 12 13  2  0
 13 14  1  0
 14 15  2  0
 15 16  1  0
 16 17  2  0
 11 18  1  0
 18 19  1  0
 19 20  1  0
 20 21  2  0
 21 22  1  0
 22 23  2  0
 23 24  1  0
 24 25  2  0
 19  5  1  0
 25 20  1  0
 17 12  1  0
M  END
$$$$

     RDKit          2D

 18 18  0  0  0  0  0  0  0  0999 V2000
    3.7500    1.2990    0.0000 O   0  0  0  0  0  0  0  0  0  0  0  0
    3.0000    0.0000    0.0000 C   0  0  0  0  0  0  0  0  0  0  0  0
    1.5000    0.0000    0.0000 N   0  0  0  0  0  0  0  0  0  0  0  0
    0.7500   -1.2990    0.0000 C   0  0  0  0  0  0  0  0  0  0  0  0
   -0.7500   -1.2990    0.0000 C   0  0  0  0  0  0  0  0  0  0  0  0
   -1.5000    0.0000    0.0000 N   0  0  0  0  0  0  0  0  0  0  0  0
   -0.7500    1.2990    0.0000 C   0  0  0  0  0  0  0  0  0  0  0  0
    0.7500    1.2990    0.0000 C   0  0  0  0  0  0  0  0  0  0  0  0
    3.7500   -1.2990    0.0000 C   0  0  0  0  0  0  0  0  0  0  0  0
    5.0490   -0.5490    0.0000 F   0  0  0  0  0  0  0  0  0  0  0  0
    2.4510   -2.0490    0.0000 F   0  0  0  0  0  0  0  0  0  0  0  0
    4.5000   -2.5981    0.0000 C   0  0  0  0  0  0  0  0  0  0  0  0
    3.2010   -3.3481    0.0000 F   0  0  0  0  0  0  0  0  0  0  0  0
    5.7990   -1.8481    0.0000 F   0  0  0  0  0  0  0  0  0  0  0  0
    5.2500   -3.8971    0.0000 C   0  0  0  0  0  0  0  0  0  0  0  0
    6.0000   -5.1962    0.0000 F   0  0  0  0  0  0  0  0  0  0  0  0
    6.5490   -3.1471    0.0000 F   0  0  0  0  0  0  0  0  0  0  0  0
    3.9510   -4.6471    0.0000 F   0  0  0  0  0  0  0  0  0  0  0  0
  1  2  2  0
  2  3  1  0
  3  4  1  0
  4  5  1  0
  5  6  1  0
  6  7  1  0
  7  8  1  0
  2  9  1  0
  9 10  1  0
  9 11  1  0
  9 12  1  0
 12 13  1  0
 12 14  1  0
 12 15  1  0
 15 16  1  0
 15 17  1  0
 15 18  1  0
  8  3  1  0
M  END
$$$$

     RDKit          2D

 18 19  0  0  0  0  0  0  0  0999 V2000
    2.3907    1.0037    0.0000 F   0  0  0  0  0  0  0  0  0  0  0  0
    1.2760    0.0000    0.0000 C   0  0  0  0  0  0  0  0  0  0  0  0
    2.3907   -1.0037    0.0000 F   0  0  0  0  0  0  0  0  0  0  0  0
    0.3943    1.2135    0.0000 C   0  0  0  0  0  0  0  0  0  0  0  0
   -1.0323    1.6771    0.0000 C   0  0  0  0  0  0  0  0  0  0  0  0
   -0.4222    3.0474    0.0000 F   0  0  0  0  0  0  0  0  0  0  0  0
   -2.3313    2.4271    0.0000 F   0  0  0  0  0  0  0  0  0  0  0  0
   -1.9140    0.4635    0.0000 C   0  0  0  0  0  0  0  0  0  0  0  0
   -3.0287    1.4672    0.0000 F   0  0  0  0  0  0  0  0  0  0  0  0
   -3.0287   -0.5402    0.0000 F   0  0  0  0  0  0  0  0  0  0  0  0
   -1.0323   -0.7500    0.0000 C   0  0  0  0  0  0  0  0  0  0  0  0
   -2.2458   -1.6317    0.0000 F   0  0  0  0  0  0  0  0  0  0  0  0
   -1.0323    0.7500    0.0000 C   0  0  0  0  0  0  0  0  0  0  0  0
   -1.8217    0.8610    0.0000 F   0  0  0  0  0  0  0  0  0  0  0  0
   -1.6899    2.0982    0.0000 F   0  0  0  0  0  0  0  0  0  0  0  0
    0.3943   -1.2135    0.0000 C   0  0  0  0  0  0  0  0  0  0  0  0
    1.6933   -1.9635    0.0000 F   0  0  0  0  0  0  0  0  0  0  0  0
   -0.2158   -2.5838    0.0000 F   0  0  0  0  0  0  0  0  0  0  0  0
  1  2  1  0
  2  3  1  0
  2  4  1  0
  4  5  1  0
  5  6  1  0
  5  7  1  0
  5  8  1  0
  8  9  1  0
  8 10  1  0
  8 11  1  0
 11 12  1  0
 11 13  1  0
 13 14  1  0
 13 15  1  0
 11 16  1  0
 16 17  1  0
 16 18  1  0
 16  2  1  0
 13  4  1  0
M  END
$$$$

     RDKit          2D

 37 36  0  0  0  0  0  0  0  0999 V2000
   -0.0000    0.0000    0.0000 C   0  0  0  0  0  0  0  0  0  0  0  0
    1.2990    0.7500    0.0000 C   0  0  0  0  0  0  0  0  0  0  0  0
    2.5981   -0.0000    0.0000 O   0  0  0  0  0  0  0  0  0  0  0  0
    3.8971    0.7500    0.0000 C   0  0  0  0  0  0  0  0  0  0  0  0
    3.8971    2.2500    0.0000 O   0  0  0  0  0  0  0  0  0  0  0  0
    5.1962   -0.0000    0.0000 C   0  0  0  0  0  0  0  0  0  0  0  0
    6.4952    0.7500    0.0000 N   0  0  0  0  0  0  0  0  0  0  0  0
    7.7942   -0.0000    0.0000 C   0  0  0  0  0  0  0  0  0  0  0  0
    9.0933    0.7500    0.0000 C   0  0  0  0  0  0  0  0  0  0  0  0
    6.4952    2.2500    0.0000 S   0  0  0  0  0  0  0  0  0  0  0  0
    4.9952    2.2500    0.0000 O   0  0  0  0  0  0  0  0  0  0  0  0
    7.2864    2.1528    0.0000 O   0  0  0  0  0  0  0  0  0  0  0  0
    6.4952    3.7500    0.0000 C   0  0  0  0  0  0  0  0  0  0  0  0
    4.9952    3.7500    0.0000 F   0  0  0  0  0  0  0  0  0  0  0  0
    6.4952    5.2500    0.0000 F   0  0  0  0  0  0  0  0  0  0  0  0
    7.9952    3.7500    0.0000 C   0  0  0  0  0  0  0  0  0  0  0  0
    8.1032    2.8709    0.0000 F   0  0  0  0  0  0  0  0  0  0  0  0
    7.9952    5.2500    0.0000 F   0  0  0  0  0  0  0  0  0  0  0  0
    9.4952    3.7500    0.0000 C   0  0  0  0  0  0  0  0  0  0  0  0
    9.4952    2.2500    0.0000 F   0  0  0  0  0  0  0  0  0  0  0  0
    9.4952    5.2500    0.0000 F   0  0  0  0  0  0  0  0  0  0  0  0
   10.9952    3.7500    0.0000 C   0  0  0  0  0  0  0  0  0  0  0  0
   10.9952    5.2500    0.0000 F   0  0  0  0  0  0  0  0  0  0  0  0
   10.9952    2.2500    0.0000 F   0  0  0  0  0  0  0  0  0  0  0  0
   12.4952    3.7500    0.0000 C   0  0  0  0  0  0  0  0  0  0  0  0
   12.4952    5.2500    0.0000 F   0  0  0  0  0  0  0  0  0  0  0  0
   12.4952    2.2500    0.0000 F   0  0  0  0  0  0  0  0  0  0  0  0
   13.9952    3.7500    0.0000 C   0  0  0  0  0  0  0  0  0  0  0  0
   13.9952    2.2500    0.0000 F   0  0  0  0  0  0  0  0  0  0  0  0
   13.9952    5.2500    0.0000 F   0  0  0  0  0  0  0  0  0  0  0  0
   15.4952    3.7500    0.0000 C   0  0  0  0  0  0  0  0  0  0  0  0
   15.4952    5.2500    0.0000 F   0  0  0  0  0  0  0  0  0  0  0  0
   15.4952    2.2500    0.0000 F   0  0  0  0  0  0  0  0  0  0  0  0
   16.9952    3.7500    0.0000 C   0  0  0  0  0  0  0  0  0  0  0  0
   18.4952    3.7500    0.0000 F   0  0  0  0  0  0  0  0  0  0  0  0
   16.9952    2.2500    0.0000 F   0  0  0  0  0  0  0  0  0  0  0  0
   16.9952    5.2500    0.0000 F   0  0  0  0  0  0  0  0  0  0  0  0
  1  2  1  0
  2  3  1  0
  3  4  1  0
  4  5  2  0
  4  6  1  0
  6  7  1  0
  7  8  1  0
  8  9  1  0
  7 10  1  0
 10 11  2  0
 10 12  2  0
 10 13  1  0
 13 14  1  0
 13 15  1  0
 13 16  1  0
 16 17  1  0
 16 18  1  0
 16 19  1  0
 19 20  1  0
 19 21  1  0
 19 22  1  0
 22 23  1  0
 22 24  1  0
 22 25  1  0
 25 26  1  0
 25 27  1  0
 25 28  1  0
 28 29  1  0
 28 30  1  0
 28 31  1  0
 31 32  1  0
 31 33  1  0
 31 34  1  0
 34 35  1  0
 34 36  1  0
 34 37  1  0
M  END
$$$$

     RDKit          2D

 15 15  0  0  0  0  0  0  0  0999 V2000
    3.0000    0.0000    0.0000 F   0  0  0  0  0  0  0  0  0  0  0  0
    1.5000    0.0000    0.0000 C   0  0  0  0  0  0  0  0  0  0  0  0
    0.7500   -1.2990    0.0000 O   0  0  0  0  0  0  0  0  0  0  0  0
   -0.7500   -1.2990    0.0000 C   0  0  0  0  0  0  0  0  0  0  0  0
   -0.4895   -2.7762    0.0000 F   0  0  0  0  0  0  0  0  0  0  0  0
   -2.1595   -1.8121    0.0000 F   0  0  0  0  0  0  0  0  0  0  0  0
   -1.5000    0.0000    0.0000 C   0  0  0  0  0  0  0  0  0  0  0  0
   -2.6491   -0.9642    0.0000 F   0  0  0  0  0  0  0  0  0  0  0  0
   -2.6491    0.9642    0.0000 F   0  0  0  0  0  0  0  0  0  0  0  0
   -0.7500    1.2990    0.0000 C   0  0  0  0  0  0  0  0  0  0  0  0
   -2.1595    1.8121    0.0000 F   0  0  0  0  0  0  0  0  0  0  0  0
   -0.4895    2.7762    0.0000 F   0  0  0  0  0  0  0  0  0  0  0  0
    0.7500    1.2990    0.0000 C   0  0  0  0  0  0  0  0  0  0  0  0
    0.4895    2.7762    0.0000 F   0  0  0  0  0  0  0  0  0  0  0  0
    2.1595    1.8121    0.0000 F   0  0  0  0  0  0  0  0  0  0  0  0
  1  2  1  0
  2  3  1  0
  3  4  1  0
  4  5  1  0
  4  6  1  0
  4  7  1  0
  7  8  1  0
  7  9  1  0
  7 10  1  0
 10 11  1  0
 10 12  1  0
 10 13  1  0
 13 14  1  0
 13 15  1  0
 13  2  1  0
M  END
$$$$

     RDKit          2D

 17 17  0  0  0  0  0  0  0  0999 V2000
    3.0000    0.0000    0.0000 C   0  0  0  0  0  0  0  0  0  0  0  0
    1.5000    0.0000    0.0000 C   0  0  0  0  0  0  0  0  0  0  0  0
    0.7500   -1.2990    0.0000 C   0  0  0  0  0  0  0  0  0  0  0  0
   -0.7500   -1.2990    0.0000 C   0  0  0  0  0  0  0  0  0  0  0  0
   -1.5000    0.0000    0.0000 C   0  0  0  0  0  0  0  0  0  0  0  0
   -3.0000    0.0000    0.0000 C   0  0  0  0  0  0  0  0  0  0  0  0
   -3.0000   -1.5000    0.0000 O   0  0  0  0  0  0  0  0  0  0  0  0
   -4.5000    0.0000    0.0000 C   0  0  0  0  0  0  0  0  0  0  0  0
   -6.0000   -0.0000    0.0000 F   0  0  0  0  0  0  0  0  0  0  0  0
   -4.5000   -1.5000    0.0000 F   0  0  0  0  0  0  0  0  0  0  0  0
   -4.6080    0.8791    0.0000 F   0  0  0  0  0  0  0  0  0  0  0  0
   -3.0000    1.5000    0.0000 C   0  0  0  0  0  0  0  0  0  0  0  0
   -3.0000    3.0000    0.0000 F   0  0  0  0  0  0  0  0  0  0  0  0
   -3.8791    1.6080    0.0000 F   0  0  0  0  0  0  0  0  0  0  0  0
   -1.5446    1.8630    0.0000 F   0  0  0  0  0  0  0  0  0  0  0  0
   -0.7500    1.2990    0.0000 C   0  0  0  0  0  0  0  0  0  0  0  0
    0.7500    1.2990    0.0000 C   0  0  0  0  0  0  0  0  0  0  0  0
  1  2  1  0
  2  3  2  0
  3  4  1  0
  4  5  2  0
  5  6  1  0
  6  7  1  0
  6  8  1  0
  8  9  1  0
  8 10  1  0
  8 11  1  0
  6 12  1  0
 12 13  1  0
 12 14  1  0
 12 15  1  0
  5 16  1  0
 16 17  2  0
 17  2  1  0
M  END
$$$$

     RDKit          2D

 18 18  0  0  0  0  0  0  0  0999 V2000
    3.0000    0.0000    0.0000 F   0  0  0  0  0  0  0  0  0  0  0  0
    1.5000    0.0000    0.0000 C   0  0  0  0  0  0  0  0  0  0  0  0
    0.7500   -1.2990    0.0000 C   0  0  0  0  0  0  0  0  0  0  0  0
   -0.7500   -1.2990    0.0000 C   0  0  0  0  0  0  0  0  0  0  0  0
   -1.5000   -2.5981    0.0000 Br  0  0  0  0  0  0  0  0  0  0  0  0
   -1.5000    0.0000    0.0000 C   0  0  0  0  0  0  0  0  0  0  0  0
   -0.7500    1.2990    0.0000 C   0  0  0  0  0  0  0  0  0  0  0  0
    0.7500    1.2990    0.0000 C   0  0  0  0  0  0  0  0  0  0  0  0
    1.5000    2.5981    0.0000 O   0  0  0  0  0  0  0  0  0  0  0  0
    3.0000    2.5981    0.0000 C   0  0  0  0  0  0  0  0  0  0  0  0
    3.0000    1.0981    0.0000 F   0  0  0  0  0  0  0  0  0  0  0  0
    3.0000    4.0981    0.0000 F   0  0  0  0  0  0  0  0  0  0  0  0
    4.5000    2.5981    0.0000 C   0  0  0  0  0  0  0  0  0  0  0  0
    5.2500    3.8971    0.0000 F   0  0  0  0  0  0  0  0  0  0  0  0
    5.2500    1.2990    0.0000 C   0  0  0  0  0  0  0  0  0  0  0  0
    6.0000   -0.0000    0.0000 F   0  0  0  0  0  0  0  0  0  0  0  0
    6.5490    2.0490    0.0000 F   0  0  0  0  0  0  0  0  0  0  0  0
    3.9510    0.5490    0.0000 F   0  0  0  0  0  0  0  0  0  0  0  0
  1  2  1  0
  2  3  2  0
  3  4  1  0
  4  5  1  0
  4  6  2  0
  6  7  1  0
  7  8  2  0
  8  9  1  0
  9 10  1  0
 10 11  1  0
 10 12  1  0
 10 13  1  0
 13 14  1  0
 13 15  1  0
 15 16  1  0
 15 17  1  0
 15 18  1  0
  8  2  1  0
M  END
$$$$

     RDKit          2D

 15 14  0  0  0  0  0  0  0  0999 V2000
    0.0000    0.0000    0.0000 C   0  0  0  0  0  0  0  0  0  0  0  0
    1.2990    0.7500    0.0000 C   0  0  0  0  0  0  0  0  0  0  0  0
    1.2990    2.2500    0.0000 F   0  0  0  0  0  0  0  0  0  0  0  0
    2.5981   -0.0000    0.0000 C   0  0  0  0  0  0  0  0  0  0  0  0
    2.5981   -1.5000    0.0000 O   0  0  0  0  0  0  0  0  0  0  0  0
    3.8971    0.7500    0.0000 O   0  0  0  0  0  0  0  0  0  0  0  0
    5.1962   -0.0000    0.0000 C   0  0  0  0  0  0  0  0  0  0  0  0
    6.4952    0.7500    0.0000 C   0  0  0  0  0  0  0  0  0  0  0  0
    7.7942    1.5000    0.0000 F   0  0  0  0  0  0  0  0  0  0  0  0
    7.2452   -0.5490    0.0000 F   0  0  0  0  0  0  0  0  0  0  0  0
    5.7452    2.0490    0.0000 F   0  0  0  0  0  0  0  0  0  0  0  0
    5.1962   -1.5000    0.0000 C   0  0  0  0  0  0  0  0  0  0  0  0
    5.1962   -3.0000    0.0000 F   0  0  0  0  0  0  0  0  0  0  0  0
    6.6962   -1.5000    0.0000 F   0  0  0  0  0  0  0  0  0  0  0  0
    3.6962   -1.5000    0.0000 F   0  0  0  0  0  0  0  0  0  0  0  0
  1  2  2  0
  2  3  1  0
  2  4  1  0
  4  5  2  0
  4  6  1  0
  6  7  1  0
  7  8  1  0
  8  9  1  0
  8 10  1  0
  8 11  1  0
  7 12  1  0
 12 13  1  0
 12 14  1  0
 12 15  1  0
M  END
$$$$

     RDKit          2D

 11 10  0  0  0  0  0  0  0  0999 V2000
    0.0000    0.0000    0.0000 C   0  0  0  0  0  0  0  0  0  0  0  0
    1.2990    0.7500    0.0000 O   0  0  0  0  0  0  0  0  0  0  0  0
    2.5981   -0.0000    0.0000 C   0  0  0  0  0  0  0  0  0  0  0  0
    1.8481   -1.2990    0.0000 F   0  0  0  0  0  0  0  0  0  0  0  0
    3.3481    1.2990    0.0000 F   0  0  0  0  0  0  0  0  0  0  0  0
    3.8971   -0.7500    0.0000 C   0  0  0  0  0  0  0  0  0  0  0  0
    4.6471    0.5490    0.0000 F   0  0  0  0  0  0  0  0  0  0  0  0
    3.1471   -2.0490    0.0000 F   0  0  0  0  0  0  0  0  0  0  0  0
    5.1962   -1.5000    0.0000 C   0  0  0  0  0  0  0  0  0  0  0  0
    6.4952   -0.7500    0.0000 F   0  0  0  0  0  0  0  0  0  0  0  0
    5.1962   -3.0000    0.0000 F   0  0  0  0  0  0  0  0  0  0  0  0
  1  2  1  0
  2  3  1  0
  3  4  1  0
  3  5  1  0
  3  6  1  0
  6  7  1  0
  6  8  1  0
  6  9  1  0
  9 10  1  0
  9 11  1  0
M  END
$$$$

     RDKit          2D

 15 15  0  0  0  0  0  0  0  0999 V2000
    3.0000    0.0000    0.0000 F   0  0  0  0  0  0  0  0  0  0  0  0
    1.5000    0.0000    0.0000 C   0  0  0  0  0  0  0  0  0  0  0  0
    0.7500   -1.2990    0.0000 C   0  0  0  0  0  0  0  0  0  0  0  0
   -0.7500   -1.2990    0.0000 C   0  0  0  0  0  0  0  0  0  0  0  0
   -0.4895   -2.7762    0.0000 F   0  0  0  0  0  0  0  0  0  0  0  0
   -2.1595   -1.8121    0.0000 F   0  0  0  0  0  0  0  0  0  0  0  0
   -1.5000    0.0000    0.0000 C   0  0  0  0  0  0  0  0  0  0  0  0
   -2.6491   -0.9642    0.0000 F   0  0  0  0  0  0  0  0  0  0  0  0
   -2.6491    0.9642    0.0000 F   0  0  0  0  0  0  0  0  0  0  0  0
   -0.7500    1.2990    0.0000 C   0  0  0  0  0  0  0  0  0  0  0  0
   -2.1595    1.8121    0.0000 F   0  0  0  0  0  0  0  0  0  0  0  0
   -0.4895    2.7762    0.0000 F   0  0  0  0  0  0  0  0  0  0  0  0
    0.7500    1.2990    0.0000 C   0  0  0  0  0  0  0  0  0  0  0  0
    0.4895    2.7762    0.0000 F   0  0  0  0  0  0  0  0  0  0  0  0
    2.1595    1.8121    0.0000 F   0  0  0  0  0  0  0  0  0  0  0  0
  1  2  1  0
  2  3  1  0
  3  4  1  0
  4  5  1  0
  4  6  1  0
  4  7  1  0
  7  8  1  0
  7  9  1  0
  7 10  1  0
 10 11  1  0
 10 12  1  0
 10 13  1  0
 13 14  1  0
 13 15  1  0
 13  2  1  0
M  END
$$$$

     RDKit          2D

 23 23  0  0  0  0  0  0  0  0999 V2000
    3.0000   -2.5981    0.0000 O   0  0  0  0  0  0  0  0  0  0  0  0
    3.7500   -1.2990    0.0000 C   0  0  0  0  0  0  0  0  0  0  0  0
    3.0000    0.0000    0.0000 N   0  0  0  0  0  0  0  0  0  0  0  0
    1.5000    0.0000    0.0000 C   0  0  0  0  0  0  0  0  0  0  0  0
    0.7500   -1.2990    0.0000 C   0  0  0  0  0  0  0  0  0  0  0  0
   -0.7500   -1.2990    0.0000 C   0  0  0  0  0  0  0  0  0  0  0  0
   -1.5000    0.0000    0.0000 C   0  0  0  0  0  0  0  0  0  0  0  0
   -3.0000    0.0000    0.0000 N   0  0  0  0  0  0  0  0  0  0  0  0
   -3.7500   -1.2990    0.0000 O   0  0  0  0  0  0  0  0  0  0  0  0
   -3.7500    1.2990    0.0000 O   0  0  0  0  0  0  0  0  0  0  0  0
   -0.7500    1.2990    0.0000 C   0  0  0  0  0  0  0  0  0  0  0  0
    0.7500    1.2990    0.0000 C   0  0  0  0  0  0  0  0  0  0  0  0
    1.5000    2.5981    0.0000 O   0  0  0  0  0  0  0  0  0  0  0  0
    5.2500   -1.2990    0.0000 C   0  0  0  0  0  0  0  0  0  0  0  0
    5.2500   -2.7990    0.0000 F   0  0  0  0  0  0  0  0  0  0  0  0
    5.2500    0.2010    0.0000 F   0  0  0  0  0  0  0  0  0  0  0  0
    6.7500   -1.2990    0.0000 C   0  0  0  0  0  0  0  0  0  0  0  0
    6.7500    0.2010    0.0000 F   0  0  0  0  0  0  0  0  0  0  0  0
    6.7500   -2.7990    0.0000 F   0  0  0  0  0  0  0  0  0  0  0  0
    8.2500   -1.2990    0.0000 C   0  0  0  0  0  0  0  0  0  0  0  0
    9.7500   -1.2990    0.0000 F   0  0  0  0  0  0  0  0  0  0  0  0
    8.2500   -2.7990    0.0000 F   0  0  0  0  0  0  0  0  0  0  0  0
    8.2500    0.2010    0.0000 F   0  0  0  0  0  0  0  0  0  0  0  0
  1  2  2  0
  2  3  1  0
  3  4  1  0
  4  5  2  0
  5  6  1  0
  6  7  2  0
  7  8  1  0
  8  9  2  0
  8 10  1  0
  7 11  1  0
 11 12  2  0
 12 13  1  0
  2 14  1  0
 14 15  1  0
 14 16  1  0
 14 17  1  0
 17 18  1  0
 17 19  1  0
 17 20  1  0
 20 21  1  0
 20 22  1  0
 20 23  1  0
 12  4  1  0
M  CHG  2   8   1  10  -1
M  END
$$$$

     RDKit          2D

 31 30  0  0  0  0  0  0  0  0999 V2000
   -2.5981    1.5000    0.0000 O   0  0  0  0  0  0  0  0  0  0  0  0
   -1.2990    0.7500    0.0000 P   0  0  0  0  0  0  0  0  0  0  0  0
   -2.0490   -0.5490    0.0000 O   0  0  0  0  0  0  0  0  0  0  0  0
   -0.5490    2.0490    0.0000 O   0  0  0  0  0  0  0  0  0  0  0  0
    0.0000    0.0000    0.0000 C   0  0  0  0  0  0  0  0  0  0  0  0
    1.2990    0.7500    0.0000 C   0  0  0  0  0  0  0  0  0  0  0  0
    2.5981   -0.0000    0.0000 C   0  0  0  0  0  0  0  0  0  0  0  0
    3.3481    1.2990    0.0000 F   0  0  0  0  0  0  0  0  0  0  0  0
    1.8481   -1.2990    0.0000 F   0  0  0  0  0  0  0  0  0  0  0  0
    3.8971   -0.7500    0.0000 C   0  0  0  0  0  0  0  0  0  0  0  0
    3.1471   -2.0490    0.0000 F   0  0  0  0  0  0  0  0  0  0  0  0
    4.6471    0.5490    0.0000 F   0  0  0  0  0  0  0  0  0  0  0  0
    5.1962   -1.5000    0.0000 C   0  0  0  0  0  0  0  0  0  0  0  0
    5.9462   -0.2010    0.0000 F   0  0  0  0  0  0  0  0  0  0  0  0
    4.4462   -2.7990    0.0000 F   0  0  0  0  0  0  0  0  0  0  0  0
    6.4952   -2.2500    0.0000 C   0  0  0  0  0  0  0  0  0  0  0  0
    5.7452   -3.5490    0.0000 F   0  0  0  0  0  0  0  0  0  0  0  0
    7.2452   -0.9510    0.0000 F   0  0  0  0  0  0  0  0  0  0  0  0
    7.7942   -3.0000    0.0000 C   0  0  0  0  0  0  0  0  0  0  0  0
    8.5442   -1.7010    0.0000 F   0  0  0  0  0  0  0  0  0  0  0  0
    7.0442   -4.2990    0.0000 F   0  0  0  0  0  0  0  0  0  0  0  0
    9.0933   -3.7500    0.0000 C   0  0  0  0  0  0  0  0  0  0  0  0
    8.3433   -5.0490    0.0000 F   0  0  0  0  0  0  0  0  0  0  0  0
    9.8433   -2.4510    0.0000 F   0  0  0  0  0  0  0  0  0  0  0  0
   10.3923   -4.5000    0.0000 C   0  0  0  0  0  0  0  0  0  0  0  0
   11.1423   -3.2010    0.0000 F   0  0  0  0  0  0  0  0  0  0  0  0
    9.6423   -5.7990    0.0000 F   0  0  0  0  0  0  0  0  0  0  0  0
   11.6913   -5.2500    0.0000 C   0  0  0  0  0  0  0  0  0  0  0  0
   12.9904   -6.0000    0.0000 F   0  0  0  0  0  0  0  0  0  0  0  0
   10.9413   -6.5490    0.0000 F   0  0  0  0  0  0  0  0  0  0  0  0
   12.4413   -3.9510    0.0000 F   0  0  0  0  0  0  0  0  0  0  0  0
  1  2  2  0
  2  3  1  0
  2  4  1  0
  2  5  1  0
  5  6  1  0
  6  7  1  0
  7  8  1  0
  7  9  1  0
  7 10  1  0
 10 11  1  0
 10 12  1  0
 10 13  1  0
 13 14  1  0
 13 15  1  0
 13 16  1  0
 16 17  1  0
 16 18  1  0
 16 19  1  0
 19 20  1  0
 19 21  1  0
 19 22  1  0
 22 23  1  0
 22 24  1  0
 22 25  1  0
 25 26  1  0
 25 27  1  0
 25 28  1  0
 28 29  1  0
 28 30  1  0
 28 31  1  0
M  END
$$$$

     RDKit          2D

 36 35  0  0  0  0  0  0  0  0999 V2000
   -0.0972   -0.7912    0.0000 O   0  0  0  0  0  0  0  0  0  0  0  0
    0.0000    0.0000    0.0000 C   0  0  0  0  0  0  0  0  0  0  0  0
    1.2990    0.7500    0.0000 C   0  0  0  0  0  0  0  0  0  0  0  0
    0.5490    2.0490    0.0000 F   0  0  0  0  0  0  0  0  0  0  0  0
    2.0490   -0.5490    0.0000 O   0  0  0  0  0  0  0  0  0  0  0  0
    1.2990   -1.8481    0.0000 C   0  0  0  0  0  0  0  0  0  0  0  0
    0.5652   -1.5366    0.0000 F   0  0  0  0  0  0  0  0  0  0  0  0
    2.5981   -2.5981    0.0000 F   0  0  0  0  0  0  0  0  0  0  0  0
    0.5490   -3.1471    0.0000 C   0  0  0  0  0  0  0  0  0  0  0  0
    1.8481   -3.8971    0.0000 F   0  0  0  0  0  0  0  0  0  0  0  0
   -0.7500   -2.3971    0.0000 F   0  0  0  0  0  0  0  0  0  0  0  0
   -0.2010   -4.4462    0.0000 C   0  0  0  0  0  0  0  0  0  0  0  0
   -0.9510   -5.7452    0.0000 F   0  0  0  0  0  0  0  0  0  0  0  0
   -1.5000   -3.6962    0.0000 F   0  0  0  0  0  0  0  0  0  0  0  0
    1.0981   -5.1962    0.0000 F   0  0  0  0  0  0  0  0  0  0  0  0
    2.5981    1.5000    0.0000 C   0  0  0  0  0  0  0  0  0  0  0  0
    3.8971    2.2500    0.0000 F   0  0  0  0  0  0  0  0  0  0  0  0
    3.3481    0.2010    0.0000 F   0  0  0  0  0  0  0  0  0  0  0  0
    1.8481    2.7990    0.0000 F   0  0  0  0  0  0  0  0  0  0  0  0
   -1.2990    0.7500    0.0000 C   0  0  0  0  0  0  0  0  0  0  0  0
   -0.5490    2.0490    0.0000 F   0  0  0  0  0  0  0  0  0  0  0  0
   -2.0490   -0.5490    0.0000 O   0  0  0  0  0  0  0  0  0  0  0  0
   -3.5490   -0.5490    0.0000 C   0  0  0  0  0  0  0  0  0  0  0  0
   -3.7319    0.9398    0.0000 F   0  0  0  0  0  0  0  0  0  0  0  0
   -3.5490   -2.0490    0.0000 F   0  0  0  0  0  0  0  0  0  0  0  0
   -5.0490   -0.5490    0.0000 C   0  0  0  0  0  0  0  0  0  0  0  0
   -5.0490   -2.0490    0.0000 F   0  0  0  0  0  0  0  0  0  0  0  0
   -5.0490    0.9510    0.0000 F   0  0  0  0  0  0  0  0  0  0  0  0
   -6.5490   -0.5490    0.0000 C   0  0  0  0  0  0  0  0  0  0  0  0
   -8.0490   -0.5490    0.0000 F   0  0  0  0  0  0  0  0  0  0  0  0
   -6.5490    0.9510    0.0000 F   0  0  0  0  0  0  0  0  0  0  0  0
   -6.5490   -2.0490    0.0000 F   0  0  0  0  0  0  0  0  0  0  0  0
   -2.5981    1.5000    0.0000 C   0  0  0  0  0  0  0  0  0  0  0  0
   -3.8971    2.2500    0.0000 F   0  0  0  0  0  0  0  0  0  0  0  0
   -1.8481    2.7990    0.0000 F   0  0  0  0  0  0  0  0  0  0  0  0
   -3.7639    0.5561    0.0000 F   0  0  0  0  0  0  0  0  0  0  0  0
  1  2  2  0
  2  3  1  0
  3  4  1  0
  3  5  1  0
  5  6  1  0
  6  7  1  0
  6  8  1  0
  6  9  1  0
  9 10  1  0
  9 11  1  0
  9 12  1  0
 12 13  1  0
 12 14  1  0
 12 15  1  0
  3 16  1  0
 16 17  1  0
 16 18  1  0
 16 19  1  0
  2 20  1  0
 20 21  1  0
 20 22  1  0
 22 23  1  0
 23 24  1  0
 23 25  1  0
 23 26  1  0
 26 27  1  0
 26 28  1  0
 26 29  1  0
 29 30  1  0
 29 31  1  0
 29 32  1  0
 20 33  1  0
 33 34  1  0
 33 35  1  0
 33 36  1  0
M  END
$$$$

     RDKit          2D

 16 15  0  0  0  0  0  0  0  0999 V2000
   -1.5000    0.0000    0.0000 F   0  0  0  0  0  0  0  0  0  0  0  0
    0.0000    0.0000    0.0000 C   0  0  0  0  0  0  0  0  0  0  0  0
    0.0000    1.5000    0.0000 F   0  0  0  0  0  0  0  0  0  0  0  0
   -0.0000   -1.5000    0.0000 F   0  0  0  0  0  0  0  0  0  0  0  0
    1.5000    0.0000    0.0000 C   0  0  0  0  0  0  0  0  0  0  0  0
    1.5000   -1.5000    0.0000 F   0  0  0  0  0  0  0  0  0  0  0  0
    1.5000    1.5000    0.0000 F   0  0  0  0  0  0  0  0  0  0  0  0
    3.0000    0.0000    0.0000 N   0  0  0  0  0  0  0  0  0  0  0  0
    3.7500    1.2990    0.0000 N   0  0  0  0  0  0  0  0  0  0  0  0
    5.2500    1.2990    0.0000 C   0  0  0  0  0  0  0  0  0  0  0  0
    5.2500   -0.2010    0.0000 F   0  0  0  0  0  0  0  0  0  0  0  0
    5.2500    2.7990    0.0000 F   0  0  0  0  0  0  0  0  0  0  0  0
    6.7500    1.2990    0.0000 C   0  0  0  0  0  0  0  0  0  0  0  0
    8.2500    1.2990    0.0000 F   0  0  0  0  0  0  0  0  0  0  0  0
    6.7500   -0.2010    0.0000 F   0  0  0  0  0  0  0  0  0  0  0  0
    6.7500    2.7990    0.0000 F   0  0  0  0  0  0  0  0  0  0  0  0
  1  2  1  0
  2  3  1  0
  2  4  1  0
  2  5  1  0
  5  6  1  0
  5  7  1  0
  5  8  1  0
  8  9  2  3
  9 10  1  0
 10 11  1  0
 10 12  1  0
 10 13  1  0
 13 14  1  0
 13 15  1  0
 13 16  1  0
M  END
$$$$

     RDKit          2D

 14 13  0  0  0  0  0  0  0  0999 V2000
   -1.5000   -2.5981    0.0000 F   0  0  0  0  0  0  0  0  0  0  0  0
   -2.2500   -1.2990    0.0000 S   0  0  0  0  0  0  0  0  0  0  0  0
   -1.5000    0.0000    0.0000 N   0  0  0  0  0  0  0  0  0  0  0  0
    0.0000    0.0000    0.0000 C   0  0  0  0  0  0  0  0  0  0  0  0
    0.0000    1.5000    0.0000 F   0  0  0  0  0  0  0  0  0  0  0  0
   -0.0000   -1.5000    0.0000 F   0  0  0  0  0  0  0  0  0  0  0  0
    1.5000    0.0000    0.0000 C   0  0  0  0  0  0  0  0  0  0  0  0
    3.0000    0.0000    0.0000 F   0  0  0  0  0  0  0  0  0  0  0  0
    1.5000   -1.5000    0.0000 F   0  0  0  0  0  0  0  0  0  0  0  0
    1.5000    1.5000    0.0000 F   0  0  0  0  0  0  0  0  0  0  0  0
   -3.7500   -1.2990    0.0000 C   0  0  0  0  0  0  0  0  0  0  0  0
   -3.7500   -2.7990    0.0000 F   0  0  0  0  0  0  0  0  0  0  0  0
   -3.7500    0.2010    0.0000 F   0  0  0  0  0  0  0  0  0  0  0  0
   -5.2500   -1.2990    0.0000 F   0  0  0  0  0  0  0  0  0  0  0  0
  1  2  1  0
  2  3  2  3
  3  4  1  0
  4  5  1  0
  4  6  1  0
  4  7  1  0
  7  8  1  0
  7  9  1  0
  7 10  1  0
  2 11  1  0
 11 12  1  0
 11 13  1  0
 11 14  1  0
M  END
$$$$

     RDKit          2D

 19 18  0  0  0  0  0  0  0  0999 V2000
    0.0000    0.0000    0.0000 C   0  0  0  0  0  0  0  0  0  0  0  0
    1.2990    0.7500    0.0000 Si  0  0  0  0  0  4  0  0  0  0  0  0
    2.5981    1.5000    0.0000 C   0  0  0  0  0  0  0  0  0  0  0  0
    0.5490    2.0490    0.0000 Cl  0  0  0  0  0  0  0  0  0  0  0  0
    2.0490   -0.5490    0.0000 C   0  0  0  0  0  0  0  0  0  0  0  0
    3.5490   -0.5490    0.0000 C   0  0  0  0  0  0  0  0  0  0  0  0
    4.2990   -1.8481    0.0000 C   0  0  0  0  0  0  0  0  0  0  0  0
    5.0490   -3.1471    0.0000 C   0  0  0  0  0  0  0  0  0  0  0  0
    5.7990   -4.4462    0.0000 F   0  0  0  0  0  0  0  0  0  0  0  0
    4.3417   -3.6802    0.0000 F   0  0  0  0  0  0  0  0  0  0  0  0
    5.8644   -2.8011    0.0000 F   0  0  0  0  0  0  0  0  0  0  0  0
    5.5981   -1.0981    0.0000 C   0  0  0  0  0  0  0  0  0  0  0  0
    6.8971   -0.3481    0.0000 F   0  0  0  0  0  0  0  0  0  0  0  0
    6.1311   -1.8054    0.0000 F   0  0  0  0  0  0  0  0  0  0  0  0
    4.8481    0.2010    0.0000 F   0  0  0  0  0  0  0  0  0  0  0  0
    3.0000   -2.5981    0.0000 C   0  0  0  0  0  0  0  0  0  0  0  0
    1.7010   -3.3481    0.0000 F   0  0  0  0  0  0  0  0  0  0  0  0
    3.3461   -3.4134    0.0000 F   0  0  0  0  0  0  0  0  0  0  0  0
    1.9580   -1.5191    0.0000 F   0  0  0  0  0  0  0  0  0  0  0  0
  1  2  1  0
  2  3  1  0
  2  4  1  0
  2  5  1  0
  5  6  1  0
  6  7  1  0
  7  8  1  0
  8  9  1  0
  8 10  1  0
  8 11  1  0
  7 12  1  0
 12 13  1  0
 12 14  1  0
 12 15  1  0
  7 16  1  0
 16 17  1  0
 16 18  1  0
 16 19  1  0
M  END
$$$$

     RDKit          2D

 14 13  0  0  0  0  0  0  0  0999 V2000
    0.0000    0.0000    0.0000 C   0  0  0  0  0  0  0  0  0  0  0  0
    1.2990    0.7500    0.0000 C   0  0  0  0  0  0  0  0  0  0  0  0
    2.5981   -0.0000    0.0000 C   0  0  0  0  0  0  0  0  0  0  0  0
    1.2990    2.2500    0.0000 C   0  0  0  0  0  0  0  0  0  0  0  0
    0.0000    3.0000    0.0000 F   0  0  0  0  0  0  0  0  0  0  0  0
    2.5981    3.0000    0.0000 C   0  0  0  0  0  0  0  0  0  0  0  0
    2.5981    4.5000    0.0000 C   0  0  0  0  0  0  0  0  0  0  0  0
    2.5981    6.0000    0.0000 F   0  0  0  0  0  0  0  0  0  0  0  0
    4.0981    4.5000    0.0000 F   0  0  0  0  0  0  0  0  0  0  0  0
    1.0981    4.5000    0.0000 F   0  0  0  0  0  0  0  0  0  0  0  0
    3.8971    2.2500    0.0000 C   0  0  0  0  0  0  0  0  0  0  0  0
    5.1962    1.5000    0.0000 F   0  0  0  0  0  0  0  0  0  0  0  0
    4.6471    3.5490    0.0000 F   0  0  0  0  0  0  0  0  0  0  0  0
    3.1471    0.9510    0.0000 F   0  0  0  0  0  0  0  0  0  0  0  0
  1  2  1  0
  2  3  1  0
  2  4  1  0
  4  5  1  0
  4  6  2  0
  6  7  1  0
  7  8  1  0
  7  9  1  0
  7 10  1  0
  6 11  1  0
 11 12  1  0
 11 13  1  0
 11 14  1  0
M  END
$$$$

     RDKit          2D

 18 16  0  0  0  0  0  0  0  0999 V2000
    1.0000   -1.5000    0.0000 O   0  0  0  0  0  0  0  0  0  0  0  0
    2.5000   -1.5000    0.0000 S   0  0  0  0  0  0  0  0  0  0  0  0
    3.2912   -1.5972    0.0000 O   0  0  0  0  0  0  0  0  0  0  0  0
    2.5000   -3.0000    0.0000 O   0  0  0  0  0  0  0  0  0  0  0  0
    2.5000    0.0000    0.0000 C   0  0  0  0  0  0  0  0  0  0  0  0
    1.0000    0.0000    0.0000 F   0  0  0  0  0  0  0  0  0  0  0  0
    2.5000    1.5000    0.0000 F   0  0  0  0  0  0  0  0  0  0  0  0
    4.0000    0.0000    0.0000 C   0  0  0  0  0  0  0  0  0  0  0  0
    4.0000    1.5000    0.0000 F   0  0  0  0  0  0  0  0  0  0  0  0
    4.1080   -0.8791    0.0000 F   0  0  0  0  0  0  0  0  0  0  0  0
    5.5000    0.0000    0.0000 C   0  0  0  0  0  0  0  0  0  0  0  0
    5.5000    1.5000    0.0000 F   0  0  0  0  0  0  0  0  0  0  0  0
    5.5000   -1.5000    0.0000 F   0  0  0  0  0  0  0  0  0  0  0  0
    7.0000    0.0000    0.0000 C   0  0  0  0  0  0  0  0  0  0  0  0
    8.5000    0.0000    0.0000 F   0  0  0  0  0  0  0  0  0  0  0  0
    7.0000   -1.5000    0.0000 F   0  0  0  0  0  0  0  0  0  0  0  0
    7.0000    1.5000    0.0000 F   0  0  0  0  0  0  0  0  0  0  0  0
    0.0000    0.0000    0.0000 Li  0  0  0  0  0 15  0  0  0  0  0  0
  1  2  2  0
  2  3  2  0
  2  4  1  0
  2  5  1  0
  5  6  1  0
  5  7  1  0
  5  8  1  0
  8  9  1  0
  8 10  1  0
  8 11  1  0
 11 12  1  0
 11 13  1  0
 11 14  1  0
 14 15  1  0
 14 16  1  0
 14 17  1  0
M  CHG  2   4  -1  18   1
M  END
$$$$

     RDKit          2D

 41 40  0  0  0  0  0  0  0  0999 V2000
    0.0000    0.0000    0.0000 C   0  0  0  0  0  0  0  0  0  0  0  0
    1.2990    0.7500    0.0000 N   0  0  0  0  0  0  0  0  0  0  0  0
    2.5981    1.5000    0.0000 C   0  0  0  0  0  0  0  0  0  0  0  0
    2.0490   -0.5490    0.0000 C   0  0  0  0  0  0  0  0  0  0  0  0
    3.5490   -0.5490    0.0000 C   0  0  0  0  0  0  0  0  0  0  0  0
    4.2990   -1.8481    0.0000 C   0  0  0  0  0  0  0  0  0  0  0  0
    5.7990   -1.8481    0.0000 N   0  0  0  0  0  0  0  0  0  0  0  0
    6.5490   -3.1471    0.0000 S   0  0  0  0  0  0  0  0  0  0  0  0
    5.2500   -3.8971    0.0000 O   0  0  0  0  0  0  0  0  0  0  0  0
    7.8481   -2.3971    0.0000 O   0  0  0  0  0  0  0  0  0  0  0  0
    7.2990   -4.4462    0.0000 C   0  0  0  0  0  0  0  0  0  0  0  0
    6.5490   -5.7452    0.0000 C   0  0  0  0  0  0  0  0  0  0  0  0
    7.2990   -7.0442    0.0000 C   0  0  0  0  0  0  0  0  0  0  0  0
    6.0000   -7.7942    0.0000 F   0  0  0  0  0  0  0  0  0  0  0  0
    8.5981   -6.2942    0.0000 F   0  0  0  0  0  0  0  0  0  0  0  0
    8.0490   -8.3433    0.0000 C   0  0  0  0  0  0  0  0  0  0  0  0
    9.3481   -7.5933    0.0000 F   0  0  0  0  0  0  0  0  0  0  0  0
    6.7500   -9.0933    0.0000 F   0  0  0  0  0  0  0  0  0  0  0  0
    8.7990   -9.6423    0.0000 C   0  0  0  0  0  0  0  0  0  0  0  0
    7.5000  -10.3923    0.0000 F   0  0  0  0  0  0  0  0  0  0  0  0
   10.0981   -8.8923    0.0000 F   0  0  0  0  0  0  0  0  0  0  0  0
    9.5490  -10.9413    0.0000 C   0  0  0  0  0  0  0  0  0  0  0  0
   10.8481  -10.1913    0.0000 F   0  0  0  0  0  0  0  0  0  0  0  0
    8.2500  -11.6913    0.0000 F   0  0  0  0  0  0  0  0  0  0  0  0
   10.2990  -12.2404    0.0000 C   0  0  0  0  0  0  0  0  0  0  0  0
    9.0000  -12.9904    0.0000 F   0  0  0  0  0  0  0  0  0  0  0  0
   11.5981  -11.4904    0.0000 F   0  0  0  0  0  0  0  0  0  0  0  0
   11.0490  -13.5394    0.0000 C   0  0  0  0  0  0  0  0  0  0  0  0
   12.3481  -12.7894    0.0000 F   0  0  0  0  0  0  0  0  0  0  0  0
    9.7500  -14.2894    0.0000 F   0  0  0  0  0  0  0  0  0  0  0  0
   11.7990  -14.8385    0.0000 C   0  0  0  0  0  0  0  0  0  0  0  0
   10.5000  -15.5885    0.0000 F   0  0  0  0  0  0  0  0  0  0  0  0
   13.0981  -14.0885    0.0000 F   0  0  0  0  0  0  0  0  0  0  0  0
   12.5490  -16.1375    0.0000 C   0  0  0  0  0  0  0  0  0  0  0  0
   13.2990  -17.4365    0.0000 F   0  0  0  0  0  0  0  0  0  0  0  0
   13.8481  -15.3875    0.0000 F   0  0  0  0  0  0  0  0  0  0  0  0
   11.2500  -16.8875    0.0000 F   0  0  0  0  0  0  0  0  0  0  0  0
    0.5490    2.0490    0.0000 C   0  0  0  0  0  0  0  0  0  0  0  0
    1.2990    3.3481    0.0000 C   0  0  0  0  0  0  0  0  0  0  0  0
    2.7990    3.3481    0.0000 O   0  0  0  0  0  0  0  0  0  0  0  0
    0.5490    4.6471    0.0000 O   0  0  0  0  0  0  0  0  0  0  0  0
  1  2  1  0
  2  3  1  0
  2  4  1  0
  4  5  1  0
  5  6  1  0
  6  7  1  0
  7  8  1  0
  8  9  2  0
  8 10  2  0
  8 11  1  0
 11 12  1  0
 12 13  1  0
 13 14  1  0
 13 15  1  0
 13 16  1  0
 16 17  1  0
 16 18  1  0
 16 19  1  0
 19 20  1  0
 19 21  1  0
 19 22  1  0
 22 23  1  0
 22 24  1  0
 22 25  1  0
 25 26  1  0
 25 27  1  0
 25 28  1  0
 28 29  1  0
 28 30  1  0
 28 31  1  0
 31 32  1  0
 31 33  1  0
 31 34  1  0
 34 35  1  0
 34 36  1  0
 34 37  1  0
  2 38  1  0
 38 39  1  0
 39 40  2  0
 39 41  1  0
M  CHG  1   2   1
M  END
$$$$

     RDKit          2D

 30 28  0  0  0  0  0  0  0  0999 V2000
   -1.5000   -1.5000    0.0000 O   0  0  0  0  0  0  0  0  0  0  0  0
    0.0000   -1.5000    0.0000 S   0  0  0  0  0  0  0  0  0  0  0  0
    0.7912   -1.5972    0.0000 O   0  0  0  0  0  0  0  0  0  0  0  0
   -0.0000   -3.0000    0.0000 O   0  0  0  0  0  0  0  0  0  0  0  0
    0.0000    0.0000    0.0000 C   0  0  0  0  0  0  0  0  0  0  0  0
   -1.5000    0.0000    0.0000 F   0  0  0  0  0  0  0  0  0  0  0  0
    0.0000    1.5000    0.0000 F   0  0  0  0  0  0  0  0  0  0  0  0
    1.5000    0.0000    0.0000 C   0  0  0  0  0  0  0  0  0  0  0  0
    1.5000    1.5000    0.0000 F   0  0  0  0  0  0  0  0  0  0  0  0
    1.6080   -0.8791    0.0000 F   0  0  0  0  0  0  0  0  0  0  0  0
    3.0000    0.0000    0.0000 C   0  0  0  0  0  0  0  0  0  0  0  0
    3.0000   -1.5000    0.0000 F   0  0  0  0  0  0  0  0  0  0  0  0
    3.0000    1.5000    0.0000 F   0  0  0  0  0  0  0  0  0  0  0  0
    4.5000    0.0000    0.0000 C   0  0  0  0  0  0  0  0  0  0  0  0
    4.5000    1.5000    0.0000 F   0  0  0  0  0  0  0  0  0  0  0  0
    4.5000   -1.5000    0.0000 F   0  0  0  0  0  0  0  0  0  0  0  0
    6.0000    0.0000    0.0000 C   0  0  0  0  0  0  0  0  0  0  0  0
    6.0000    1.5000    0.0000 F   0  0  0  0  0  0  0  0  0  0  0  0
    6.0000   -1.5000    0.0000 F   0  0  0  0  0  0  0  0  0  0  0  0
    7.5000    0.0000    0.0000 C   0  0  0  0  0  0  0  0  0  0  0  0
    7.5000   -1.5000    0.0000 F   0  0  0  0  0  0  0  0  0  0  0  0
    7.5000    1.5000    0.0000 F   0  0  0  0  0  0  0  0  0  0  0  0
    9.0000    0.0000    0.0000 C   0  0  0  0  0  0  0  0  0  0  0  0
    9.0000    1.5000    0.0000 F   0  0  0  0  0  0  0  0  0  0  0  0
    9.0000   -1.5000    0.0000 F   0  0  0  0  0  0  0  0  0  0  0  0
   10.5000    0.0000    0.0000 C   0  0  0  0  0  0  0  0  0  0  0  0
   12.0000    0.0000    0.0000 F   0  0  0  0  0  0  0  0  0  0  0  0
   10.5000   -1.5000    0.0000 F   0  0  0  0  0  0  0  0  0  0  0  0
   10.5000    1.5000    0.0000 Cl  0  0  0  0  0  0  0  0  0  0  0  0
    0.0000    2.5000    0.0000 Na  0  0  0  0  0 15  0  0  0  0  0  0
  1  2  2  0
  2  3  2  0
  2  4  1  0
  2  5  1  0
  5  6  1  0
  5  7  1  0
  5  8  1  0
  8  9  1  0
  8 10  1  0
  8 11  1  0
 11 12  1  0
 11 13  1  0
 11 14  1  0
 14 15  1  0
 14 16  1  0
 14 17  1  0
 17 18  1  0
 17 19  1  0
 17 20  1  0
 20 21  1  0
 20 22  1  0
 20 23  1  0
 23 24  1  0
 23 25  1  0
 23 26  1  0
 26 27  1  0
 26 28  1  0
 26 29  1  0
M  CHG  2   4  -1  30   1
M  END
$$$$

     RDKit          2D

 20 20  0  0  0  0  0  0  0  0999 V2000
    3.0000    0.0000    0.0000 N   0  0  0  0  0  0  0  0  0  0  0  0
    1.5000    0.0000    0.0000 C   0  0  0  0  0  0  0  0  0  0  0  0
    0.7500   -1.2990    0.0000 C   0  0  0  0  0  0  0  0  0  0  0  0
   -0.7500   -1.2990    0.0000 C   0  0  0  0  0  0  0  0  0  0  0  0
   -1.5000   -2.5981    0.0000 Cl  0  0  0  0  0  0  0  0  0  0  0  0
   -1.5000    0.0000    0.0000 C   0  0  0  0  0  0  0  0  0  0  0  0
   -3.0000    0.0000    0.0000 O   0  0  0  0  0  0  0  0  0  0  0  0
   -3.7500    1.2990    0.0000 C   0  0  0  0  0  0  0  0  0  0  0  0
   -2.4510    2.0490    0.0000 F   0  0  0  0  0  0  0  0  0  0  0  0
   -5.0490    0.5490    0.0000 F   0  0  0  0  0  0  0  0  0  0  0  0
   -4.5000    2.5981    0.0000 C   0  0  0  0  0  0  0  0  0  0  0  0
   -6.0000    2.5981    0.0000 F   0  0  0  0  0  0  0  0  0  0  0  0
   -3.7500    3.8971    0.0000 C   0  0  0  0  0  0  0  0  0  0  0  0
   -3.0000    5.1962    0.0000 F   0  0  0  0  0  0  0  0  0  0  0  0
   -5.0490    4.6471    0.0000 F   0  0  0  0  0  0  0  0  0  0  0  0
   -2.4510    3.1471    0.0000 F   0  0  0  0  0  0  0  0  0  0  0  0
   -0.7500    1.2990    0.0000 C   0  0  0  0  0  0  0  0  0  0  0  0
   -1.5000    2.5981    0.0000 Cl  0  0  0  0  0  0  0  0  0  0  0  0
    0.7500    1.2990    0.0000 C   0  0  0  0  0  0  0  0  0  0  0  0
    1.5000    2.5981    0.0000 F   0  0  0  0  0  0  0  0  0  0  0  0
  1  2  1  0
  2  3  2  0
  3  4  1  0
  4  5  1  0
  4  6  2  0
  6  7  1  0
  7  8  1  0
  8  9  1  0
  8 10  1  0
  8 11  1  0
 11 12  1  0
 11 13  1  0
 13 14  1  0
 13 15  1  0
 13 16  1  0
  6 17  1  0
 17 18  1  0
 17 19  2  0
 19 20  1  0
 19  2  1  0
M  END
$$$$

     RDKit          2D

 39 38  0  0  0  0  0  0  0  0999 V2000
   -0.0000   -1.5000    0.0000 O   0  0  0  0  0  0  0  0  0  0  0  0
    0.0000    0.0000    0.0000 C   0  0  0  0  0  0  0  0  0  0  0  0
   -1.2990    0.7500    0.0000 O   0  0  0  0  0  0  0  0  0  0  0  0
    1.2990    0.7500    0.0000 C   0  0  0  0  0  0  0  0  0  0  0  0
    2.0490   -0.5490    0.0000 F   0  0  0  0  0  0  0  0  0  0  0  0
    0.5490    2.0490    0.0000 F   0  0  0  0  0  0  0  0  0  0  0  0
    2.5981    1.5000    0.0000 C   0  0  0  0  0  0  0  0  0  0  0  0
    1.8481    2.7990    0.0000 F   0  0  0  0  0  0  0  0  0  0  0  0
    3.3481    0.2010    0.0000 F   0  0  0  0  0  0  0  0  0  0  0  0
    3.8971    2.2500    0.0000 C   0  0  0  0  0  0  0  0  0  0  0  0
    4.6471    0.9510    0.0000 F   0  0  0  0  0  0  0  0  0  0  0  0
    3.1471    3.5490    0.0000 F   0  0  0  0  0  0  0  0  0  0  0  0
    5.1962    3.0000    0.0000 C   0  0  0  0  0  0  0  0  0  0  0  0
    4.4462    4.2990    0.0000 F   0  0  0  0  0  0  0  0  0  0  0  0
    5.9462    1.7010    0.0000 F   0  0  0  0  0  0  0  0  0  0  0  0
    6.4952    3.7500    0.0000 C   0  0  0  0  0  0  0  0  0  0  0  0
    7.2452    2.4510    0.0000 F   0  0  0  0  0  0  0  0  0  0  0  0
    5.7452    5.0490    0.0000 F   0  0  0  0  0  0  0  0  0  0  0  0
    7.7942    4.5000    0.0000 C   0  0  0  0  0  0  0  0  0  0  0  0
    7.0442    5.7990    0.0000 F   0  0  0  0  0  0  0  0  0  0  0  0
    8.5442    3.2010    0.0000 F   0  0  0  0  0  0  0  0  0  0  0  0
    9.0933    5.2500    0.0000 C   0  0  0  0  0  0  0  0  0  0  0  0
    8.3433    6.5490    0.0000 F   0  0  0  0  0  0  0  0  0  0  0  0
    9.8433    3.9510    0.0000 F   0  0  0  0  0  0  0  0  0  0  0  0
   10.3923    6.0000    0.0000 C   0  0  0  0  0  0  0  0  0  0  0  0
   11.1423    4.7010    0.0000 F   0  0  0  0  0  0  0  0  0  0  0  0
    9.6423    7.2990    0.0000 F   0  0  0  0  0  0  0  0  0  0  0  0
   11.6913    6.7500    0.0000 C   0  0  0  0  0  0  0  0  0  0  0  0
   10.9413    8.0490    0.0000 F   0  0  0  0  0  0  0  0  0  0  0  0
   12.4413    5.4510    0.0000 F   0  0  0  0  0  0  0  0  0  0  0  0
   12.9904    7.5000    0.0000 C   0  0  0  0  0  0  0  0  0  0  0  0
   13.7404    6.2010    0.0000 F   0  0  0  0  0  0  0  0  0  0  0  0
   12.2404    8.7990    0.0000 F   0  0  0  0  0  0  0  0  0  0  0  0
   14.2894    8.2500    0.0000 C   0  0  0  0  0  0  0  0  0  0  0  0
   13.5394    9.5490    0.0000 F   0  0  0  0  0  0  0  0  0  0  0  0
   15.0394    6.9510    0.0000 F   0  0  0  0  0  0  0  0  0  0  0  0
   15.5885    9.0000    0.0000 C   0  0  0  0  0  0  0  0  0  0  0  0
   16.8875    8.2500    0.0000 O   0  0  0  0  0  0  0  0  0  0  0  0
   15.5885   10.5000    0.0000 O   0  0  0  0  0  0  0  0  0  0  0  0
  1  2  2  0
  2  3  1  0
  2  4  1  0
  4  5  1  0
  4  6  1  0
  4  7  1  0
  7  8  1  0
  7  9  1  0
  7 10  1  0
 10 11  1  0
 10 12  1  0
 10 13  1  0
 13 14  1  0
 13 15  1  0
 13 16  1  0
 16 17  1  0
 16 18  1  0
 16 19  1  0
 19 20  1  0
 19 21  1  0
 19 22  1  0
 22 23  1  0
 22 24  1  0
 22 25  1  0
 25 26  1  0
 25 27  1  0
 25 28  1  0
 28 29  1  0
 28 30  1  0
 28 31  1  0
 31 32  1  0
 31 33  1  0
 31 34  1  0
 34 35  1  0
 34 36  1  0
 34 37  1  0
 37 38  2  0
 37 39  1  0
M  END
$$$$

     RDKit          2D

 27 26  0  0  0  0  0  0  0  0999 V2000
   -0.0000   -1.5000    0.0000 O   0  0  0  0  0  0  0  0  0  0  0  0
    0.0000    0.0000    0.0000 C   0  0  0  0  0  0  0  0  0  0  0  0
   -1.2990    0.7500    0.0000 O   0  0  0  0  0  0  0  0  0  0  0  0
    1.2990    0.7500    0.0000 C   0  0  0  0  0  0  0  0  0  0  0  0
    2.0490   -0.5490    0.0000 F   0  0  0  0  0  0  0  0  0  0  0  0
    0.5490    2.0490    0.0000 F   0  0  0  0  0  0  0  0  0  0  0  0
    2.5981    1.5000    0.0000 O   0  0  0  0  0  0  0  0  0  0  0  0
    2.5981    3.0000    0.0000 C   0  0  0  0  0  0  0  0  0  0  0  0
    1.0981    3.0000    0.0000 F   0  0  0  0  0  0  0  0  0  0  0  0
    4.0981    3.0000    0.0000 F   0  0  0  0  0  0  0  0  0  0  0  0
    2.5981    4.5000    0.0000 C   0  0  0  0  0  0  0  0  0  0  0  0
    4.0981    4.5000    0.0000 F   0  0  0  0  0  0  0  0  0  0  0  0
    1.0981    4.5000    0.0000 O   0  0  0  0  0  0  0  0  0  0  0  0
    0.3481    5.7990    0.0000 C   0  0  0  0  0  0  0  0  0  0  0  0
    0.9847    6.2788    0.0000 F   0  0  0  0  0  0  0  0  0  0  0  0
   -0.9510    5.0490    0.0000 F   0  0  0  0  0  0  0  0  0  0  0  0
   -0.4019    7.0981    0.0000 C   0  0  0  0  0  0  0  0  0  0  0  0
   -1.7010    6.3481    0.0000 F   0  0  0  0  0  0  0  0  0  0  0  0
    0.8971    7.8481    0.0000 F   0  0  0  0  0  0  0  0  0  0  0  0
   -1.1519    8.3971    0.0000 C   0  0  0  0  0  0  0  0  0  0  0  0
   -1.9019    9.6962    0.0000 F   0  0  0  0  0  0  0  0  0  0  0  0
    0.1471    9.1471    0.0000 F   0  0  0  0  0  0  0  0  0  0  0  0
   -2.4510    7.6471    0.0000 Cl  0  0  0  0  0  0  0  0  0  0  0  0
    2.5981    6.0000    0.0000 C   0  0  0  0  0  0  0  0  0  0  0  0
    2.5981    7.5000    0.0000 F   0  0  0  0  0  0  0  0  0  0  0  0
    1.8539    6.2857    0.0000 F   0  0  0  0  0  0  0  0  0  0  0  0
    4.0981    6.0000    0.0000 F   0  0  0  0  0  0  0  0  0  0  0  0
  1  2  2  0
  2  3  1  0
  2  4  1  0
  4  5  1  0
  4  6  1  0
  4  7  1  0
  7  8  1  0
  8  9  1  0
  8 10  1  0
  8 11  1  0
 11 12  1  0
 11 13  1  0
 13 14  1  0
 14 15  1  0
 14 16  1  0
 14 17  1  0
 17 18  1  0
 17 19  1  0
 17 20  1  0
 20 21  1  0
 20 22  1  0
 20 23  1  0
 11 24  1  0
 24 25  1  0
 24 26  1  0
 24 27  1  0
M  END
$$$$

     RDKit          2D

 31 30  0  0  0  0  0  0  0  0999 V2000
   -9.0000   -5.1962    0.0000 C   0  0  0  0  0  0  0  0  0  0  0  0
   -7.5000   -5.1962    0.0000 C   0  0  0  0  0  0  0  0  0  0  0  0
   -6.7500   -3.8971    0.0000 C   0  0  0  0  0  0  0  0  0  0  0  0
   -5.2500   -3.8971    0.0000 C   0  0  0  0  0  0  0  0  0  0  0  0
   -4.5000   -2.5981    0.0000 C   0  0  0  0  0  0  0  0  0  0  0  0
   -3.0000   -2.5981    0.0000 C   0  0  0  0  0  0  0  0  0  0  0  0
   -2.2500   -1.2990    0.0000 C   0  0  0  0  0  0  0  0  0  0  0  0
   -0.7500   -1.2990    0.0000 C   0  0  0  0  0  0  0  0  0  0  0  0
    0.0000    0.0000    0.0000 C   0  0  0  0  0  0  0  0  0  0  0  0
    1.5000    0.0000    0.0000 C   0  0  0  0  0  0  0  0  0  0  0  0
    2.2500    1.2990    0.0000 C   0  0  0  0  0  0  0  0  0  0  0  0
    3.7500    1.2990    0.0000 C   0  0  0  0  0  0  0  0  0  0  0  0
    4.5000    2.5981    0.0000 C   0  0  0  0  0  0  0  0  0  0  0  0
    6.0000    2.5981    0.0000 C   0  0  0  0  0  0  0  0  0  0  0  0
    6.7500    3.8971    0.0000 C   0  0  0  0  0  0  0  0  0  0  0  0
    8.2500    3.8971    0.0000 C   0  0  0  0  0  0  0  0  0  0  0  0
    9.0000    5.1962    0.0000 C   0  0  0  0  0  0  0  0  0  0  0  0
   10.5000    5.1962    0.0000 C   0  0  0  0  0  0  0  0  0  0  0  0
   11.2500    3.8971    0.0000 O   0  0  0  0  0  0  0  0  0  0  0  0
   11.2500    6.4952    0.0000 O   0  0  0  0  0  0  0  0  0  0  0  0
   12.7500    6.4952    0.0000 C   0  0  0  0  0  0  0  0  0  0  0  0
   13.5000    7.7942    0.0000 C   0  0  0  0  0  0  0  0  0  0  0  0
   14.7990    7.0442    0.0000 F   0  0  0  0  0  0  0  0  0  0  0  0
   12.2010    8.5442    0.0000 F   0  0  0  0  0  0  0  0  0  0  0  0
   14.2500    9.0933    0.0000 C   0  0  0  0  0  0  0  0  0  0  0  0
   12.9510    9.8433    0.0000 F   0  0  0  0  0  0  0  0  0  0  0  0
   15.5490    8.3433    0.0000 F   0  0  0  0  0  0  0  0  0  0  0  0
   15.0000   10.3923    0.0000 C   0  0  0  0  0  0  0  0  0  0  0  0
   15.7500   11.6913    0.0000 F   0  0  0  0  0  0  0  0  0  0  0  0
   16.2990    9.6423    0.0000 F   0  0  0  0  0  0  0  0  0  0  0  0
   13.7010   11.1423    0.0000 F   0  0  0  0  0  0  0  0  0  0  0  0
  1  2  1  0
  2  3  1  0
  3  4  1  0
  4  5  1  0
  5  6  1  0
  6  7  1  0
  7  8  1  0
  8  9  1  0
  9 10  2  0
 10 11  1  0
 11 12  1  0
 12 13  1  0
 13 14  1  0
 14 15  1  0
 15 16  1  0
 16 17  1  0
 17 18  1  0
 18 19  2  0
 18 20  1  0
 20 21  1  0
 21 22  1  0
 22 23  1  0
 22 24  1  0
 22 25  1  0
 25 26  1  0
 25 27  1  0
 25 28  1  0
 28 29  1  0
 28 30  1  0
 28 31  1  0
M  END
$$$$

     RDKit          2D

 30 28  0  0  0  0  0  0  0  0999 V2000
    0.0000    0.0000    0.0000 Li  0  0  0  0  0 15  0  0  0  0  0  0
    2.5000   -3.0000    0.0000 N   0  0  0  0  0  0  0  0  0  0  0  0
    2.5000   -1.5000    0.0000 S   0  0  0  0  0  0  0  0  0  0  0  0
    1.0000   -1.5000    0.0000 O   0  0  0  0  0  0  0  0  0  0  0  0
    3.2912   -1.5972    0.0000 O   0  0  0  0  0  0  0  0  0  0  0  0
    2.5000    0.0000    0.0000 C   0  0  0  0  0  0  0  0  0  0  0  0
    1.0000    0.0000    0.0000 F   0  0  0  0  0  0  0  0  0  0  0  0
    2.5000    1.5000    0.0000 F   0  0  0  0  0  0  0  0  0  0  0  0
    4.0000    0.0000    0.0000 C   0  0  0  0  0  0  0  0  0  0  0  0
    4.0000    1.5000    0.0000 F   0  0  0  0  0  0  0  0  0  0  0  0
    4.1080   -0.8791    0.0000 F   0  0  0  0  0  0  0  0  0  0  0  0
    5.5000    0.0000    0.0000 C   0  0  0  0  0  0  0  0  0  0  0  0
    5.5000   -1.5000    0.0000 F   0  0  0  0  0  0  0  0  0  0  0  0
    5.5000    1.5000    0.0000 F   0  0  0  0  0  0  0  0  0  0  0  0
    7.0000    0.0000    0.0000 C   0  0  0  0  0  0  0  0  0  0  0  0
    7.0000    1.5000    0.0000 F   0  0  0  0  0  0  0  0  0  0  0  0
    7.0000   -1.5000    0.0000 F   0  0  0  0  0  0  0  0  0  0  0  0
    8.5000    0.0000    0.0000 C   0  0  0  0  0  0  0  0  0  0  0  0
    8.5000    1.5000    0.0000 F   0  0  0  0  0  0  0  0  0  0  0  0
    8.5000   -1.5000    0.0000 F   0  0  0  0  0  0  0  0  0  0  0  0
   10.0000    0.0000    0.0000 C   0  0  0  0  0  0  0  0  0  0  0  0
   10.0000   -1.5000    0.0000 F   0  0  0  0  0  0  0  0  0  0  0  0
   10.0000    1.5000    0.0000 F   0  0  0  0  0  0  0  0  0  0  0  0
   11.5000    0.0000    0.0000 C   0  0  0  0  0  0  0  0  0  0  0  0
   11.5000    1.5000    0.0000 F   0  0  0  0  0  0  0  0  0  0  0  0
   11.5000   -1.5000    0.0000 F   0  0  0  0  0  0  0  0  0  0  0  0
   13.0000    0.0000    0.0000 C   0  0  0  0  0  0  0  0  0  0  0  0
   14.5000    0.0000    0.0000 F   0  0  0  0  0  0  0  0  0  0  0  0
   13.0000   -1.5000    0.0000 F   0  0  0  0  0  0  0  0  0  0  0  0
   13.0000    1.5000    0.0000 F   0  0  0  0  0  0  0  0  0  0  0  0
  2  3  1  0
  3  4  2  0
  3  5  2  0
  3  6  1  0
  6  7  1  0
  6  8  1  0
  6  9  1  0
  9 10  1  0
  9 11  1  0
  9 12  1  0
 12 13  1  0
 12 14  1  0
 12 15  1  0
 15 16  1  0
 15 17  1  0
 15 18  1  0
 18 19  1  0
 18 20  1  0
 18 21  1  0
 21 22  1  0
 21 23  1  0
 21 24  1  0
 24 25  1  0
 24 26  1  0
 24 27  1  0
 27 28  1  0
 27 29  1  0
 27 30  1  0
M  CHG  2   1   1   2  -1
M  END
$$$$

     RDKit          2D

 28 27  0  0  0  0  0  0  0  0999 V2000
    0.0000   -2.5981    0.0000 O   0  0  0  0  0  0  0  0  0  0  0  0
   -0.7500   -1.2990    0.0000 C   0  0  0  0  0  0  0  0  0  0  0  0
   -2.2500   -1.2990    0.0000 O   0  0  0  0  0  0  0  0  0  0  0  0
    0.0000    0.0000    0.0000 C   0  0  0  0  0  0  0  0  0  0  0  0
    1.5000    0.0000    0.0000 C   0  0  0  0  0  0  0  0  0  0  0  0
    2.2500   -1.2990    0.0000 F   0  0  0  0  0  0  0  0  0  0  0  0
    2.2500    1.2990    0.0000 C   0  0  0  0  0  0  0  0  0  0  0  0
    3.5490    0.5490    0.0000 F   0  0  0  0  0  0  0  0  0  0  0  0
    0.9510    2.0490    0.0000 F   0  0  0  0  0  0  0  0  0  0  0  0
    3.0000    2.5981    0.0000 C   0  0  0  0  0  0  0  0  0  0  0  0
    1.7010    3.3481    0.0000 F   0  0  0  0  0  0  0  0  0  0  0  0
    4.2990    1.8481    0.0000 F   0  0  0  0  0  0  0  0  0  0  0  0
    3.7500    3.8971    0.0000 C   0  0  0  0  0  0  0  0  0  0  0  0
    5.0490    3.1471    0.0000 F   0  0  0  0  0  0  0  0  0  0  0  0
    2.4510    4.6471    0.0000 F   0  0  0  0  0  0  0  0  0  0  0  0
    4.5000    5.1962    0.0000 C   0  0  0  0  0  0  0  0  0  0  0  0
    3.2010    5.9462    0.0000 F   0  0  0  0  0  0  0  0  0  0  0  0
    5.7990    4.4462    0.0000 F   0  0  0  0  0  0  0  0  0  0  0  0
    5.2500    6.4952    0.0000 C   0  0  0  0  0  0  0  0  0  0  0  0
    6.5490    5.7452    0.0000 F   0  0  0  0  0  0  0  0  0  0  0  0
    3.9510    7.2452    0.0000 F   0  0  0  0  0  0  0  0  0  0  0  0
    6.0000    7.7942    0.0000 C   0  0  0  0  0  0  0  0  0  0  0  0
    4.7010    8.5442    0.0000 F   0  0  0  0  0  0  0  0  0  0  0  0
    7.2990    7.0442    0.0000 F   0  0  0  0  0  0  0  0  0  0  0  0
    6.7500    9.0933    0.0000 C   0  0  0  0  0  0  0  0  0  0  0  0
    7.5000   10.3923    0.0000 F   0  0  0  0  0  0  0  0  0  0  0  0
    8.0490    8.3433    0.0000 F   0  0  0  0  0  0  0  0  0  0  0  0
    5.4510    9.8433    0.0000 F   0  0  0  0  0  0  0  0  0  0  0  0
  1  2  2  0
  2  3  1  0
  2  4  1  0
  4  5  2  0
  5  6  1  0
  5  7  1  0
  7  8  1  0
  7  9  1  0
  7 10  1  0
 10 11  1  0
 10 12  1  0
 10 13  1  0
 13 14  1  0
 13 15  1  0
 13 16  1  0
 16 17  1  0
 16 18  1  0
 16 19  1  0
 19 20  1  0
 19 21  1  0
 19 22  1  0
 22 23  1  0
 22 24  1  0
 22 25  1  0
 25 26  1  0
 25 27  1  0
 25 28  1  0
M  END
$$$$

     RDKit          2D

 44 44  0  0  0  0  0  0  0  0999 V2000
    9.0000    4.0981    0.0000 C   0  0  0  0  0  0  0  0  0  0  0  0
    9.0000    2.5981    0.0000 N   0  0  0  0  0  0  0  0  0  0  0  0
    9.0000    1.0981    0.0000 C   0  0  0  0  0  0  0  0  0  0  0  0
   10.5000    2.5981    0.0000 C   0  0  0  0  0  0  0  0  0  0  0  0
    7.5000    2.5981    0.0000 C   0  0  0  0  0  0  0  0  0  0  0  0
    6.7500    1.2990    0.0000 C   0  0  0  0  0  0  0  0  0  0  0  0
    5.2500    1.2990    0.0000 C   0  0  0  0  0  0  0  0  0  0  0  0
    4.5000    0.0000    0.0000 N   0  0  0  0  0  0  0  0  0  0  0  0
    3.0000    0.0000    0.0000 S   0  0  0  0  0  0  0  0  0  0  0  0
    3.0000   -1.5000    0.0000 O   0  0  0  0  0  0  0  0  0  0  0  0
    3.0000    1.5000    0.0000 O   0  0  0  0  0  0  0  0  0  0  0  0
    1.5000    0.0000    0.0000 C   0  0  0  0  0  0  0  0  0  0  0  0
    0.7500   -1.2990    0.0000 C   0  0  0  0  0  0  0  0  0  0  0  0
   -0.7500   -1.2990    0.0000 C   0  0  0  0  0  0  0  0  0  0  0  0
   -1.5000    0.0000    0.0000 C   0  0  0  0  0  0  0  0  0  0  0  0
   -3.0000    0.0000    0.0000 O   0  0  0  0  0  0  0  0  0  0  0  0
   -3.7500    1.2990    0.0000 C   0  0  0  0  0  0  0  0  0  0  0  0
   -2.4510    2.0490    0.0000 F   0  0  0  0  0  0  0  0  0  0  0  0
   -5.0490    0.5490    0.0000 F   0  0  0  0  0  0  0  0  0  0  0  0
   -4.5000    2.5981    0.0000 C   0  0  0  0  0  0  0  0  0  0  0  0
   -5.7990    1.8481    0.0000 F   0  0  0  0  0  0  0  0  0  0  0  0
   -3.2010    3.3481    0.0000 F   0  0  0  0  0  0  0  0  0  0  0  0
   -5.2500    3.8971    0.0000 C   0  0  0  0  0  0  0  0  0  0  0  0
   -3.9510    4.6471    0.0000 F   0  0  0  0  0  0  0  0  0  0  0  0
   -6.5490    3.1471    0.0000 F   0  0  0  0  0  0  0  0  0  0  0  0
   -6.0000    5.1962    0.0000 C   0  0  0  0  0  0  0  0  0  0  0  0
   -7.2990    4.4462    0.0000 F   0  0  0  0  0  0  0  0  0  0  0  0
   -4.7010    5.9462    0.0000 F   0  0  0  0  0  0  0  0  0  0  0  0
   -6.7500    6.4952    0.0000 C   0  0  0  0  0  0  0  0  0  0  0  0
   -5.4510    7.2452    0.0000 F   0  0  0  0  0  0  0  0  0  0  0  0
   -8.0490    5.7452    0.0000 F   0  0  0  0  0  0  0  0  0  0  0  0
   -7.5000    7.7942    0.0000 C   0  0  0  0  0  0  0  0  0  0  0  0
   -8.7990    7.0442    0.0000 F   0  0  0  0  0  0  0  0  0  0  0  0
   -6.2010    8.5442    0.0000 F   0  0  0  0  0  0  0  0  0  0  0  0
   -8.2500    9.0933    0.0000 C   0  0  0  0  0  0  0  0  0  0  0  0
   -6.9510    9.8433    0.0000 F   0  0  0  0  0  0  0  0  0  0  0  0
   -9.5490    8.3433    0.0000 F   0  0  0  0  0  0  0  0  0  0  0  0
   -9.0000   10.3923    0.0000 C   0  0  0  0  0  0  0  0  0  0  0  0
  -10.5000   10.3923    0.0000 F   0  0  0  0  0  0  0  0  0  0  0  0
   -8.2500   11.6913    0.0000 C   0  0  0  0  0  0  0  0  0  0  0  0
   -9.0000   12.9904    0.0000 F   0  0  0  0  0  0  0  0  0  0  0  0
   -6.7500   11.6913    0.0000 F   0  0  0  0  0  0  0  0  0  0  0  0
   -0.7500    1.2990    0.0000 C   0  0  0  0  0  0  0  0  0  0  0  0
    0.7500    1.2990    0.0000 C   0  0  0  0  0  0  0  0  0  0  0  0
  1  2  1  0
  2  3  1  0
  2  4  1  0
  2  5  1  0
  5  6  1  0
  6  7  1  0
  7  8  1  0
  8  9  1  0
  9 10  2  0
  9 11  2  0
  9 12  1  0
 12 13  2  0
 13 14  1  0
 14 15  2  0
 15 16  1  0
 16 17  1  0
 17 18  1  0
 17 19  1  0
 17 20  1  0
 20 21  1  0
 20 22  1  0
 20 23  1  0
 23 24  1  0
 23 25  1  0
 23 26  1  0
 26 27  1  0
 26 28  1  0
 26 29  1  0
 29 30  1  0
 29 31  1  0
 29 32  1  0
 32 33  1  0
 32 34  1  0
 32 35  1  0
 35 36  1  0
 35 37  1  0
 35 38  1  0
 38 39  1  0
 38 40  2  0
 40 41  1  0
 40 42  1  0
 15 43  1  0
 43 44  2  0
 44 12  1  0
M  CHG  1   2   1
M  END
$$$$

     RDKit          2D

 20 20  0  0  0  0  0  0  0  0999 V2000
    6.7500   -6.4952    0.0000 O   0  0  0  0  0  0  0  0  0  0  0  0
    7.5000   -5.1962    0.0000 C   0  0  0  0  0  0  0  0  0  0  0  0
    9.0000   -5.1962    0.0000 O   0  0  0  0  0  0  0  0  0  0  0  0
    6.7500   -3.8971    0.0000 C   0  0  0  0  0  0  0  0  0  0  0  0
    8.0490   -3.1471    0.0000 F   0  0  0  0  0  0  0  0  0  0  0  0
    5.4510   -4.6471    0.0000 F   0  0  0  0  0  0  0  0  0  0  0  0
    6.0000   -2.5981    0.0000 C   0  0  0  0  0  0  0  0  0  0  0  0
    7.2990   -1.8481    0.0000 F   0  0  0  0  0  0  0  0  0  0  0  0
    4.7010   -3.3481    0.0000 F   0  0  0  0  0  0  0  0  0  0  0  0
    5.2500   -1.2990    0.0000 C   0  0  0  0  0  0  0  0  0  0  0  0
    6.0000    0.0000    0.0000 O   0  0  0  0  0  0  0  0  0  0  0  0
    3.7500   -1.2990    0.0000 N   0  0  0  0  0  0  0  0  0  0  0  0
    3.0000    0.0000    0.0000 C   0  0  0  0  0  0  0  0  0  0  0  0
    1.5000    0.0000    0.0000 C   0  0  0  0  0  0  0  0  0  0  0  0
    0.7500   -1.2990    0.0000 C   0  0  0  0  0  0  0  0  0  0  0  0
   -0.7500   -1.2990    0.0000 C   0  0  0  0  0  0  0  0  0  0  0  0
   -1.5000    0.0000    0.0000 C   0  0  0  0  0  0  0  0  0  0  0  0
   -0.7500    1.2990    0.0000 C   0  0  0  0  0  0  0  0  0  0  0  0
   -1.5000    2.5981    0.0000 Cl  0  0  0  0  0  0  0  0  0  0  0  0
    0.7500    1.2990    0.0000 C   0  0  0  0  0  0  0  0  0  0  0  0
  1  2  2  0
  2  3  1  0
  2  4  1  0
  4  5  1  0
  4  6  1  0
  4  7  1  0
  7  8  1  0
  7  9  1  0
  7 10  1  0
 10 11  2  0
 10 12  1  0
 12 13  1  0
 13 14  1  0
 14 15  2  0
 15 16  1  0
 16 17  2  0
 17 18  1  0
 18 19  1  0
 18 20  2  0
 20 14  1  0
M  END
$$$$

     RDKit          2D

 18 17  0  0  0  0  0  0  0  0999 V2000
    2.2500    1.2990    0.0000 O   0  0  0  0  0  0  0  0  0  0  0  0
    1.5000    0.0000    0.0000 N   0  0  0  0  0  0  0  0  0  0  0  0
    0.0000    0.0000    0.0000 C   0  0  0  0  0  0  0  0  0  0  0  0
   -1.5000    0.0000    0.0000 F   0  0  0  0  0  0  0  0  0  0  0  0
    0.0000    1.5000    0.0000 F   0  0  0  0  0  0  0  0  0  0  0  0
   -0.0000   -1.5000    0.0000 F   0  0  0  0  0  0  0  0  0  0  0  0
    2.2500   -1.2990    0.0000 C   0  0  0  0  0  0  0  0  0  0  0  0
    0.9510   -2.0490    0.0000 F   0  0  0  0  0  0  0  0  0  0  0  0
    3.5490   -0.5490    0.0000 F   0  0  0  0  0  0  0  0  0  0  0  0
    3.0000   -2.5981    0.0000 C   0  0  0  0  0  0  0  0  0  0  0  0
    1.7010   -3.3481    0.0000 F   0  0  0  0  0  0  0  0  0  0  0  0
    4.2990   -1.8481    0.0000 F   0  0  0  0  0  0  0  0  0  0  0  0
    3.7500   -3.8971    0.0000 N   0  0  0  0  0  0  0  0  0  0  0  0
    3.0000   -5.1962    0.0000 O   0  0  0  0  0  0  0  0  0  0  0  0
    5.2500   -3.8971    0.0000 C   0  0  0  0  0  0  0  0  0  0  0  0
    6.7500   -3.8971    0.0000 F   0  0  0  0  0  0  0  0  0  0  0  0
    5.2500   -5.3971    0.0000 F   0  0  0  0  0  0  0  0  0  0  0  0
    5.2500   -2.3971    0.0000 F   0  0  0  0  0  0  0  0  0  0  0  0
  1  2  1  0
  2  3  1  0
  3  4  1  0
  3  5  1  0
  3  6  1  0
  2  7  1  0
  7  8  1  0
  7  9  1  0
  7 10  1  0
 10 11  1  0
 10 12  1  0
 10 13  1  0
 13 14  1  0
 13 15  1  0
 15 16  1  0
 15 17  1  0
 15 18  1  0
M  CHG  4   1  -1   2   1  13   1  14  -1
M  END
$$$$

     RDKit          2D

 25 26  0  0  0  0  0  0  0  0999 V2000
   -3.3342    3.2733    0.0000 F   0  0  0  0  0  0  0  0  0  0  0  0
   -1.8351    3.2209    0.0000 C   0  0  0  0  0  0  0  0  0  0  0  0
   -2.0439    4.7063    0.0000 F   0  0  0  0  0  0  0  0  0  0  0  0
   -0.4086    3.6844    0.0000 C   0  0  0  0  0  0  0  0  0  0  0  0
   -1.1128    5.0089    0.0000 F   0  0  0  0  0  0  0  0  0  0  0  0
    0.7735    4.6079    0.0000 F   0  0  0  0  0  0  0  0  0  0  0  0
    0.7062    2.6807    0.0000 C   0  0  0  0  0  0  0  0  0  0  0  0
    1.5010    3.9528    0.0000 F   0  0  0  0  0  0  0  0  0  0  0  0
    1.8798    2.3663    0.0000 F   0  0  0  0  0  0  0  0  0  0  0  0
    0.3943    1.2135    0.0000 C   0  0  0  0  0  0  0  0  0  0  0  0
    1.5827    1.4661    0.0000 F   0  0  0  0  0  0  0  0  0  0  0  0
    1.2760    0.0000    0.0000 C   0  0  0  0  0  0  0  0  0  0  0  0
    2.5047    0.8603    0.0000 F   0  0  0  0  0  0  0  0  0  0  0  0
    2.3907   -1.0037    0.0000 F   0  0  0  0  0  0  0  0  0  0  0  0
    0.3943   -1.2135    0.0000 C   0  0  0  0  0  0  0  0  0  0  0  0
    1.6933   -1.9635    0.0000 F   0  0  0  0  0  0  0  0  0  0  0  0
   -0.2158   -2.5838    0.0000 F   0  0  0  0  0  0  0  0  0  0  0  0
   -1.0323   -0.7500    0.0000 C   0  0  0  0  0  0  0  0  0  0  0  0
   -1.3442   -2.2172    0.0000 F   0  0  0  0  0  0  0  0  0  0  0  0
   -2.5321   -0.7762    0.0000 F   0  0  0  0  0  0  0  0  0  0  0  0
   -1.0323    0.7500    0.0000 C   0  0  0  0  0  0  0  0  0  0  0  0
   -2.1422    0.2558    0.0000 F   0  0  0  0  0  0  0  0  0  0  0  0
   -2.1470    1.7537    0.0000 C   0  0  0  0  0  0  0  0  0  0  0  0
   -2.9117    0.8095    0.0000 F   0  0  0  0  0  0  0  0  0  0  0  0
   -3.5378    2.3156    0.0000 F   0  0  0  0  0  0  0  0  0  0  0  0
  1  2  1  0
  2  3  1  0
  2  4  1  0
  4  5  1  0
  4  6  1  0
  4  7  1  0
  7  8  1  0
  7  9  1  0
  7 10  1  0
 10 11  1  6
 10 12  1  0
 12 13  1  0
 12 14  1  0
 12 15  1  0
 15 16  1  0
 15 17  1  0
 15 18  1  0
 18 19  1  0
 18 20  1  0
 18 21  1  0
 21 22  1  1
 21 23  1  0
 23 24  1  0
 23 25  1  0
 23  2  1  0
 21 10  1  0
M  END
$$$$

     RDKit          2D

 16 15  0  0  0  0  0  0  0  0999 V2000
    0.0000    2.5981    0.0000 F   0  0  0  0  0  0  0  0  0  0  0  0
   -0.7500    1.2990    0.0000 C   0  0  0  0  0  0  0  0  0  0  0  0
    0.0000    0.0000    0.0000 C   0  0  0  0  0  0  0  0  0  0  0  0
   -0.7500   -1.2990    0.0000 F   0  0  0  0  0  0  0  0  0  0  0  0
    1.5000    0.0000    0.0000 C   0  0  0  0  0  0  0  0  0  0  0  0
    2.2500   -1.2990    0.0000 F   0  0  0  0  0  0  0  0  0  0  0  0
    2.2500    1.2990    0.0000 C   0  0  0  0  0  0  0  0  0  0  0  0
    3.0000    2.5981    0.0000 F   0  0  0  0  0  0  0  0  0  0  0  0
    3.5490    0.5490    0.0000 F   0  0  0  0  0  0  0  0  0  0  0  0
    0.9510    2.0490    0.0000 F   0  0  0  0  0  0  0  0  0  0  0  0
   -2.2500    1.2990    0.0000 C   0  0  0  0  0  0  0  0  0  0  0  0
   -3.0000    2.5981    0.0000 F   0  0  0  0  0  0  0  0  0  0  0  0
   -3.0000    0.0000    0.0000 C   0  0  0  0  0  0  0  0  0  0  0  0
   -3.7500   -1.2990    0.0000 F   0  0  0  0  0  0  0  0  0  0  0  0
   -4.2990    0.7500    0.0000 F   0  0  0  0  0  0  0  0  0  0  0  0
   -1.7010   -0.7500    0.0000 F   0  0  0  0  0  0  0  0  0  0  0  0
  1  2  1  0
  2  3  1  0
  3  4  1  0
  3  5  2  0
  5  6  1  0
  5  7  1  0
  7  8  1  0
  7  9  1  0
  7 10  1  0
  2 11  2  0
 11 12  1  0
 11 13  1  0
 13 14  1  0
 13 15  1  0
 13 16  1  0
M  END
$$$$

     RDKit          2D

 29 29  0  0  0  0  0  0  0  0999 V2000
    6.0000    0.0000    0.0000 F   0  0  0  0  0  0  0  0  0  0  0  0
    4.5000    0.0000    0.0000 C   0  0  0  0  0  0  0  0  0  0  0  0
    4.6828    1.4888    0.0000 F   0  0  0  0  0  0  0  0  0  0  0  0
    4.6080   -0.8791    0.0000 F   0  0  0  0  0  0  0  0  0  0  0  0
    3.0000    0.0000    0.0000 C   0  0  0  0  0  0  0  0  0  0  0  0
    1.5000    0.0000    0.0000 C   0  0  0  0  0  0  0  0  0  0  0  0
    0.7500   -1.2990    0.0000 C   0  0  0  0  0  0  0  0  0  0  0  0
    1.4603   -1.6610    0.0000 F   0  0  0  0  0  0  0  0  0  0  0  0
    0.4895   -2.7762    0.0000 F   0  0  0  0  0  0  0  0  0  0  0  0
   -0.7500   -1.2990    0.0000 C   0  0  0  0  0  0  0  0  0  0  0  0
   -0.4895   -2.7762    0.0000 F   0  0  0  0  0  0  0  0  0  0  0  0
   -2.1595   -1.8121    0.0000 F   0  0  0  0  0  0  0  0  0  0  0  0
   -1.5000    0.0000    0.0000 C   0  0  0  0  0  0  0  0  0  0  0  0
   -2.6491   -0.9642    0.0000 F   0  0  0  0  0  0  0  0  0  0  0  0
   -2.6491    0.9642    0.0000 F   0  0  0  0  0  0  0  0  0  0  0  0
   -0.7500    1.2990    0.0000 C   0  0  0  0  0  0  0  0  0  0  0  0
   -2.1595    1.8121    0.0000 F   0  0  0  0  0  0  0  0  0  0  0  0
   -0.4895    2.7762    0.0000 F   0  0  0  0  0  0  0  0  0  0  0  0
    0.7500    1.2990    0.0000 C   0  0  0  0  0  0  0  0  0  0  0  0
    0.4895    2.7762    0.0000 F   0  0  0  0  0  0  0  0  0  0  0  0
    2.0865    1.9801    0.0000 F   0  0  0  0  0  0  0  0  0  0  0  0
    3.0000   -1.5000    0.0000 C   0  0  0  0  0  0  0  0  0  0  0  0
    3.0000   -3.0000    0.0000 F   0  0  0  0  0  0  0  0  0  0  0  0
    3.8791   -1.6080    0.0000 F   0  0  0  0  0  0  0  0  0  0  0  0
    2.2558   -1.7857    0.0000 F   0  0  0  0  0  0  0  0  0  0  0  0
    3.0000    1.5000    0.0000 C   0  0  0  0  0  0  0  0  0  0  0  0
    3.0000    3.0000    0.0000 F   0  0  0  0  0  0  0  0  0  0  0  0
    4.4888    1.6828    0.0000 F   0  0  0  0  0  0  0  0  0  0  0  0
    1.5997    2.0377    0.0000 F   0  0  0  0  0  0  0  0  0  0  0  0
  1  2  1  0
  2  3  1  0
  2  4  1  0
  2  5  1  0
  5  6  1  0
  6  7  1  0
  7  8  1  0
  7  9  1  0
  7 10  1  0
 10 11  1  0
 10 12  1  0
 10 13  1  0
 13 14  1  0
 13 15  1  0
 13 16  1  0
 16 17  1  0
 16 18  1  0
 16 19  1  0
 19 20  1  0
 19 21  1  0
  5 22  1  0
 22 23  1  0
 22 24  1  0
 22 25  1  0
  5 26  1  0
 26 27  1  0
 26 28  1  0
 26 29  1  0
 19  6  1  0
M  END
$$$$

     RDKit          2D

 54 52  0  0  0  0  0  0  0  0999 V2000
    0.0000    0.0000    0.0000 C   0  0  0  0  0  0  0  0  0  0  0  0
    1.2990    0.7500    0.0000 C   0  0  0  0  0  0  0  0  0  0  0  0
    2.5981   -0.0000    0.0000 C   0  0  0  0  0  0  0  0  0  0  0  0
    3.8971    0.7500    0.0000 C   0  0  0  0  0  0  0  0  0  0  0  0
    5.1962   -0.0000    0.0000 C   0  0  0  0  0  0  0  0  0  0  0  0
    6.4952    0.7500    0.0000 C   0  0  0  0  0  0  0  0  0  0  0  0
    7.7942   -0.0000    0.0000 C   0  0  0  0  0  0  0  0  0  0  0  0
    9.0933    0.7500    0.0000 C   0  0  0  0  0  0  0  0  0  0  0  0
   10.3923   -0.0000    0.0000 C   0  0  0  0  0  0  0  0  0  0  0  0
   11.6913    0.7500    0.0000 C   0  0  0  0  0  0  0  0  0  0  0  0
   12.9904   -0.0000    0.0000 C   0  0  0  0  0  0  0  0  0  0  0  0
   14.2894    0.7500    0.0000 C   0  0  0  0  0  0  0  0  0  0  0  0
   15.5885   -0.0000    0.0000 C   0  0  0  0  0  0  0  0  0  0  0  0
   16.3385    1.2990    0.0000 F   0  0  0  0  0  0  0  0  0  0  0  0
   14.8385   -1.2990    0.0000 F   0  0  0  0  0  0  0  0  0  0  0  0
   16.8875   -0.7500    0.0000 C   0  0  0  0  0  0  0  0  0  0  0  0
   16.1375   -2.0490    0.0000 F   0  0  0  0  0  0  0  0  0  0  0  0
   17.6375    0.5490    0.0000 F   0  0  0  0  0  0  0  0  0  0  0  0
   18.1865   -1.5000    0.0000 C   0  0  0  0  0  0  0  0  0  0  0  0
   18.9365   -0.2010    0.0000 F   0  0  0  0  0  0  0  0  0  0  0  0
   17.4365   -2.7990    0.0000 F   0  0  0  0  0  0  0  0  0  0  0  0
   19.4856   -2.2500    0.0000 C   0  0  0  0  0  0  0  0  0  0  0  0
   18.7356   -3.5490    0.0000 F   0  0  0  0  0  0  0  0  0  0  0  0
   20.2356   -0.9510    0.0000 F   0  0  0  0  0  0  0  0  0  0  0  0
   20.7846   -3.0000    0.0000 C   0  0  0  0  0  0  0  0  0  0  0  0
   21.5346   -1.7010    0.0000 F   0  0  0  0  0  0  0  0  0  0  0  0
   20.0346   -4.2990    0.0000 F   0  0  0  0  0  0  0  0  0  0  0  0
   22.0836   -3.7500    0.0000 C   0  0  0  0  0  0  0  0  0  0  0  0
   21.3336   -5.0490    0.0000 F   0  0  0  0  0  0  0  0  0  0  0  0
   22.8336   -2.4510    0.0000 F   0  0  0  0  0  0  0  0  0  0  0  0
   23.3827   -4.5000    0.0000 C   0  0  0  0  0  0  0  0  0  0  0  0
   24.1327   -3.2010    0.0000 F   0  0  0  0  0  0  0  0  0  0  0  0
   22.6327   -5.7990    0.0000 F   0  0  0  0  0  0  0  0  0  0  0  0
   24.6817   -5.2500    0.0000 C   0  0  0  0  0  0  0  0  0  0  0  0
   25.9808   -6.0000    0.0000 F   0  0  0  0  0  0  0  0  0  0  0  0
   23.9317   -6.5490    0.0000 F   0  0  0  0  0  0  0  0  0  0  0  0
   25.4317   -3.9510    0.0000 F   0  0  0  0  0  0  0  0  0  0  0  0
   11.6913    2.2500    0.0000 O   0  0  0  0  0  0  0  0  0  0  0  0
   12.9904    3.0000    0.0000 P   0  0  0  0  0  0  0  0  0  0  0  0
   12.2404    4.2990    0.0000 O   0  0  0  0  0  0  0  0  0  0  0  0
   13.7404    1.7010    0.0000 O   0  0  0  0  0  0  0  0  0  0  0  0
   14.2894    3.7500    0.0000 O   0  0  0  0  0  0  0  0  0  0  0  0
   15.5885    3.0000    0.0000 C   0  0  0  0  0  0  0  0  0  0  0  0
   16.8875    3.7500    0.0000 C   0  0  0  0  0  0  0  0  0  0  0  0
   16.8875    5.2500    0.0000 O   0  0  0  0  0  0  0  0  0  0  0  0
   18.1865    3.0000    0.0000 C   0  0  0  0  0  0  0  0  0  0  0  0
   18.1865    1.5000    0.0000 O   0  0  0  0  0  0  0  0  0  0  0  0
   19.4856    3.7500    0.0000 C   0  0  0  0  0  0  0  0  0  0  0  0
   19.4856    5.2500    0.0000 O   0  0  0  0  0  0  0  0  0  0  0  0
   20.7846    3.0000    0.0000 C   0  0  0  0  0  0  0  0  0  0  0  0
   20.7846    1.5000    0.0000 O   0  0  0  0  0  0  0  0  0  0  0  0
   22.0836    3.7500    0.0000 C   0  0  0  0  0  0  0  0  0  0  0  0
   23.3827    3.0000    0.0000 O   0  0  0  0  0  0  0  0  0  0  0  0
    0.0000    6.2500    0.0000 Na  0  0  0  0  0 15  0  0  0  0  0  0
  1  2  1  0
  2  3  1  0
  3  4  1  0
  4  5  1  0
  5  6  1  0
  6  7  1  0
  7  8  1  0
  8  9  1  0
  9 10  1  0
 10 11  1  0
 11 12  1  0
 12 13  1  0
 13 14  1  0
 13 15  1  0
 13 16  1  0
 16 17  1  0
 16 18  1  0
 16 19  1  0
 19 20  1  0
 19 21  1  0
 19 22  1  0
 22 23  1  0
 22 24  1  0
 22 25  1  0
 25 26  1  0
 25 27  1  0
 25 28  1  0
 28 29  1  0
 28 30  1  0
 28 31  1  0
 31 32  1  0
 31 33  1  0
 31 34  1  0
 34 35  1  0
 34 36  1  0
 34 37  1  0
 10 38  1  0
 38 39  1  0
 39 40  2  0
 39 41  1  0
 39 42  1  0
 42 43  1  0
 43 44  1  0
 44 45  1  1
 44 46  1  0
 46 47  1  1
 46 48  1  0
 48 49  1  6
 48 50  1  0
 50 51  1  6
 50 52  1  0
 52 53  2  0
M  CHG  2  41  -1  54   1
M  END
$$$$

     RDKit          2D

 15 14  0  0  0  0  0  0  0  0999 V2000
   -0.8511   -1.4518    0.0000 O   0  0  0  0  0  0  0  0  0  0  0  0
   -2.0490   -0.5490    0.0000 S   0  0  0  0  0  0  0  0  0  0  0  0
   -3.3481    0.2010    0.0000 O   0  0  0  0  0  0  0  0  0  0  0  0
   -2.7990   -1.8481    0.0000 O   0  0  0  0  0  0  0  0  0  0  0  0
   -1.2990    0.7500    0.0000 C   0  0  0  0  0  0  0  0  0  0  0  0
   -2.5981    1.5000    0.0000 F   0  0  0  0  0  0  0  0  0  0  0  0
   -0.5490    2.0490    0.0000 F   0  0  0  0  0  0  0  0  0  0  0  0
    0.0000    0.0000    0.0000 C   0  0  0  0  0  0  0  0  0  0  0  0
    0.1828   -1.4888    0.0000 F   0  0  0  0  0  0  0  0  0  0  0  0
    1.2990    0.7500    0.0000 C   0  0  0  0  0  0  0  0  0  0  0  0
    1.2990    2.2500    0.0000 F   0  0  0  0  0  0  0  0  0  0  0  0
    2.5981   -0.0000    0.0000 C   0  0  0  0  0  0  0  0  0  0  0  0
    3.8971   -0.7500    0.0000 F   0  0  0  0  0  0  0  0  0  0  0  0
    3.3481    1.2990    0.0000 F   0  0  0  0  0  0  0  0  0  0  0  0
    1.8481   -1.2990    0.0000 F   0  0  0  0  0  0  0  0  0  0  0  0
  1  2  2  0
  2  3  2  0
  2  4  1  0
  2  5  1  0
  5  6  1  0
  5  7  1  0
  5  8  1  0
  8  9  1  0
  8 10  2  3
 10 11  1  0
 10 12  1  0
 12 13  1  0
 12 14  1  0
 12 15  1  0
M  END
$$$$

     RDKit          2D

 18 17  0  0  0  0  0  0  0  0999 V2000
   -0.0000   -1.5000    0.0000 O   0  0  0  0  0  0  0  0  0  0  0  0
    0.0000    0.0000    0.0000 C   0  0  0  0  0  0  0  0  0  0  0  0
   -1.2990    0.7500    0.0000 O   0  0  0  0  0  0  0  0  0  0  0  0
    1.2990    0.7500    0.0000 C   0  0  0  0  0  0  0  0  0  0  0  0
    2.0490   -0.5490    0.0000 F   0  0  0  0  0  0  0  0  0  0  0  0
    0.5490    2.0490    0.0000 F   0  0  0  0  0  0  0  0  0  0  0  0
    2.5981    1.5000    0.0000 O   0  0  0  0  0  0  0  0  0  0  0  0
    2.5981    3.0000    0.0000 C   0  0  0  0  0  0  0  0  0  0  0  0
    1.0981    3.0000    0.0000 F   0  0  0  0  0  0  0  0  0  0  0  0
    4.0981    3.0000    0.0000 F   0  0  0  0  0  0  0  0  0  0  0  0
    2.5981    4.5000    0.0000 C   0  0  0  0  0  0  0  0  0  0  0  0
    3.8971    5.2500    0.0000 F   0  0  0  0  0  0  0  0  0  0  0  0
    1.2990    5.2500    0.0000 C   0  0  0  0  0  0  0  0  0  0  0  0
   -0.0000    4.5000    0.0000 F   0  0  0  0  0  0  0  0  0  0  0  0
    1.2990    6.7500    0.0000 C   0  0  0  0  0  0  0  0  0  0  0  0
    1.2990    8.2500    0.0000 F   0  0  0  0  0  0  0  0  0  0  0  0
   -0.2010    6.7500    0.0000 F   0  0  0  0  0  0  0  0  0  0  0  0
    2.7990    6.7500    0.0000 F   0  0  0  0  0  0  0  0  0  0  0  0
  1  2  2  0
  2  3  1  0
  2  4  1  0
  4  5  1  0
  4  6  1  0
  4  7  1  0
  7  8  1  0
  8  9  1  0
  8 10  1  0
  8 11  1  0
 11 12  1  0
 11 13  2  3
 13 14  1  0
 13 15  1  0
 15 16  1  0
 15 17  1  0
 15 18  1  0
M  END
$$$$

     RDKit          2D

 25 24  0  0  0  0  0  0  0  0999 V2000
   -1.5000    1.5000    0.0000 O   0  0  0  0  0  0  0  0  0  0  0  0
   -0.0000    1.5000    0.0000 S   0  0  0  0  0  0  0  0  0  0  0  0
    0.7912    1.5972    0.0000 O   0  0  0  0  0  0  0  0  0  0  0  0
   -0.0000    3.0000    0.0000 O   0  0  0  0  0  0  0  0  0  0  0  0
    0.0000    0.0000    0.0000 C   0  0  0  0  0  0  0  0  0  0  0  0
   -1.5000   -0.0000    0.0000 F   0  0  0  0  0  0  0  0  0  0  0  0
    0.0000   -1.5000    0.0000 F   0  0  0  0  0  0  0  0  0  0  0  0
    1.5000    0.0000    0.0000 C   0  0  0  0  0  0  0  0  0  0  0  0
    1.6080    0.8791    0.0000 F   0  0  0  0  0  0  0  0  0  0  0  0
    1.5000   -1.5000    0.0000 F   0  0  0  0  0  0  0  0  0  0  0  0
    3.0000    0.0000    0.0000 C   0  0  0  0  0  0  0  0  0  0  0  0
    3.0000    1.5000    0.0000 F   0  0  0  0  0  0  0  0  0  0  0  0
    3.0000   -1.5000    0.0000 F   0  0  0  0  0  0  0  0  0  0  0  0
    4.5000    0.0000    0.0000 C   0  0  0  0  0  0  0  0  0  0  0  0
    4.1370   -1.4554    0.0000 F   0  0  0  0  0  0  0  0  0  0  0  0
    4.5000    1.5000    0.0000 F   0  0  0  0  0  0  0  0  0  0  0  0
    6.0000    0.0000    0.0000 C   0  0  0  0  0  0  0  0  0  0  0  0
    7.4888    0.1828    0.0000 F   0  0  0  0  0  0  0  0  0  0  0  0
    6.0000    1.5000    0.0000 F   0  0  0  0  0  0  0  0  0  0  0  0
    6.0000   -1.5000    0.0000 S   0  0  0  0  0  0  0  0  0  0  0  0
    7.3808   -0.9139    0.0000 F   0  0  0  0  0  0  0  0  0  0  0  0
    7.2990   -2.2500    0.0000 F   0  0  0  0  0  0  0  0  0  0  0  0
    4.8021   -2.4028    0.0000 F   0  0  0  0  0  0  0  0  0  0  0  0
    6.0000   -3.0000    0.0000 F   0  0  0  0  0  0  0  0  0  0  0  0
    4.5184   -1.2655    0.0000 F   0  0  0  0  0  0  0  0  0  0  0  0
  1  2  2  0
  2  3  2  0
  2  4  1  0
  2  5  1  0
  5  6  1  0
  5  7  1  0
  5  8  1  0
  8  9  1  0
  8 10  1  0
  8 11  1  0
 11 12  1  0
 11 13  1  0
 11 14  1  0
 14 15  1  0
 14 16  1  0
 14 17  1  0
 17 18  1  0
 17 19  1  0
 17 20  1  0
 20 21  1  0
 20 22  1  0
 20 23  1  0
 20 24  1  0
 20 25  1  0
M  END
$$$$

     RDKit          2D

 30 29  0  0  0  0  0  0  0  0999 V2000
    7.0981    4.0981    0.0000 C   0  0  0  0  0  0  0  0  0  0  0  0
    5.7990    3.3481    0.0000 N   0  0  0  0  0  0  0  0  0  0  0  0
    4.5000    2.5981    0.0000 C   0  0  0  0  0  0  0  0  0  0  0  0
    6.5490    2.0490    0.0000 C   0  0  0  0  0  0  0  0  0  0  0  0
    5.7990    0.7500    0.0000 C   0  0  0  0  0  0  0  0  0  0  0  0
    6.5490   -0.5490    0.0000 O   0  0  0  0  0  0  0  0  0  0  0  0
    5.0490    4.6471    0.0000 C   0  0  0  0  0  0  0  0  0  0  0  0
    3.5490    4.6471    0.0000 C   0  0  0  0  0  0  0  0  0  0  0  0
    2.7990    3.3481    0.0000 O   0  0  0  0  0  0  0  0  0  0  0  0
    2.7990    5.9462    0.0000 C   0  0  0  0  0  0  0  0  0  0  0  0
    1.2990    5.9462    0.0000 N   0  0  0  0  0  0  0  0  0  0  0  0
    0.5490    7.2452    0.0000 S   0  0  0  0  0  0  0  0  0  0  0  0
    1.8481    7.9952    0.0000 O   0  0  0  0  0  0  0  0  0  0  0  0
   -0.0876    6.7654    0.0000 O   0  0  0  0  0  0  0  0  0  0  0  0
   -0.2010    8.5442    0.0000 C   0  0  0  0  0  0  0  0  0  0  0  0
    1.0981    9.2942    0.0000 F   0  0  0  0  0  0  0  0  0  0  0  0
   -0.9510    9.8433    0.0000 F   0  0  0  0  0  0  0  0  0  0  0  0
   -1.5000    7.7942    0.0000 C   0  0  0  0  0  0  0  0  0  0  0  0
   -1.1539    6.9789    0.0000 F   0  0  0  0  0  0  0  0  0  0  0  0
   -2.2500    9.0933    0.0000 F   0  0  0  0  0  0  0  0  0  0  0  0
   -2.7990    7.0442    0.0000 C   0  0  0  0  0  0  0  0  0  0  0  0
   -2.0490    5.7452    0.0000 F   0  0  0  0  0  0  0  0  0  0  0  0
   -3.5490    8.3433    0.0000 F   0  0  0  0  0  0  0  0  0  0  0  0
   -4.0981    6.2942    0.0000 C   0  0  0  0  0  0  0  0  0  0  0  0
   -3.3481    4.9952    0.0000 F   0  0  0  0  0  0  0  0  0  0  0  0
   -4.8481    7.5933    0.0000 F   0  0  0  0  0  0  0  0  0  0  0  0
   -5.3971    5.5442    0.0000 C   0  0  0  0  0  0  0  0  0  0  0  0
   -6.6962    4.7942    0.0000 F   0  0  0  0  0  0  0  0  0  0  0  0
   -6.1471    6.8433    0.0000 F   0  0  0  0  0  0  0  0  0  0  0  0
   -4.6471    4.2452    0.0000 F   0  0  0  0  0  0  0  0  0  0  0  0
  1  2  1  0
  2  3  1  0
  2  4  1  0
  4  5  1  0
  5  6  1  0
  2  7  1  0
  7  8  1  0
  8  9  1  0
  8 10  1  0
 10 11  1  0
 11 12  1  0
 12 13  2  0
 12 14  2  0
 12 15  1  0
 15 16  1  0
 15 17  1  0
 15 18  1  0
 18 19  1  0
 18 20  1  0
 18 21  1  0
 21 22  1  0
 21 23  1  0
 21 24  1  0
 24 25  1  0
 24 26  1  0
 24 27  1  0
 27 28  1  0
 27 29  1  0
 27 30  1  0
M  CHG  1   2   1
M  END
$$$$

     RDKit          2D

 19 18  0  0  0  0  0  0  0  0999 V2000
   -6.6962    1.0981    0.0000 O   0  0  0  0  0  0  0  0  0  0  0  0
   -5.9462   -0.2010    0.0000 S   0  0  0  0  0  0  0  0  0  0  0  0
   -7.2452   -0.9510    0.0000 O   0  0  0  0  0  0  0  0  0  0  0  0
   -5.3095    0.2788    0.0000 F   0  0  0  0  0  0  0  0  0  0  0  0
   -5.1962   -1.5000    0.0000 C   0  0  0  0  0  0  0  0  0  0  0  0
   -6.4952   -2.2500    0.0000 F   0  0  0  0  0  0  0  0  0  0  0  0
   -4.4462   -2.7990    0.0000 F   0  0  0  0  0  0  0  0  0  0  0  0
   -3.8971   -0.7500    0.0000 C   0  0  0  0  0  0  0  0  0  0  0  0
   -3.1471   -2.0490    0.0000 F   0  0  0  0  0  0  0  0  0  0  0  0
   -4.2432    0.0653    0.0000 F   0  0  0  0  0  0  0  0  0  0  0  0
   -2.5981    0.0000    0.0000 C   0  0  0  0  0  0  0  0  0  0  0  0
   -1.8481   -1.2990    0.0000 F   0  0  0  0  0  0  0  0  0  0  0  0
   -3.3481    1.2990    0.0000 F   0  0  0  0  0  0  0  0  0  0  0  0
   -1.2990    0.7500    0.0000 O   0  0  0  0  0  0  0  0  0  0  0  0
    0.0000    0.0000    0.0000 C   0  0  0  0  0  0  0  0  0  0  0  0
   -0.0000   -1.5000    0.0000 F   0  0  0  0  0  0  0  0  0  0  0  0
    1.2990    0.7500    0.0000 C   0  0  0  0  0  0  0  0  0  0  0  0
    2.5981   -0.0000    0.0000 F   0  0  0  0  0  0  0  0  0  0  0  0
    1.2990    2.2500    0.0000 F   0  0  0  0  0  0  0  0  0  0  0  0
  1  2  2  0
  2  3  2  0
  2  4  1  0
  2  5  1  0
  5  6  1  0
  5  7  1  0
  5  8  1  0
  8  9  1  0
  8 10  1  0
  8 11  1  0
 11 12  1  0
 11 13  1  0
 11 14  1  0
 14 15  1  0
 15 16  1  0
 15 17  2  0
 17 18  1  0
 17 19  1  0
M  END
$$$$

     RDKit          2D

 62 61  0  0  0  0  0  0  0  0999 V2000
   -1.2990    0.7500    0.0000 O   0  0  0  0  0  0  0  0  0  0  0  0
    0.0000    0.0000    0.0000 C   0  0  0  0  0  0  0  0  0  0  0  0
    1.2990    0.7500    0.0000 C   0  0  0  0  0  0  0  0  0  0  0  0
    1.2990    2.2500    0.0000 S   0  0  0  0  0  0  0  0  0  0  0  0
    2.5981    3.0000    0.0000 C   0  0  0  0  0  0  0  0  0  0  0  0
    2.5981    4.5000    0.0000 C   0  0  0  0  0  0  0  0  0  0  0  0
    3.8971    5.2500    0.0000 C   0  0  0  0  0  0  0  0  0  0  0  0
    3.1471    6.5490    0.0000 F   0  0  0  0  0  0  0  0  0  0  0  0
    4.6471    3.9510    0.0000 F   0  0  0  0  0  0  0  0  0  0  0  0
    5.1962    6.0000    0.0000 C   0  0  0  0  0  0  0  0  0  0  0  0
    5.9462    4.7010    0.0000 F   0  0  0  0  0  0  0  0  0  0  0  0
    4.4462    7.2990    0.0000 F   0  0  0  0  0  0  0  0  0  0  0  0
    6.4952    6.7500    0.0000 C   0  0  0  0  0  0  0  0  0  0  0  0
    5.7452    8.0490    0.0000 F   0  0  0  0  0  0  0  0  0  0  0  0
    7.2452    5.4510    0.0000 F   0  0  0  0  0  0  0  0  0  0  0  0
    7.7942    7.5000    0.0000 C   0  0  0  0  0  0  0  0  0  0  0  0
    8.5442    6.2010    0.0000 F   0  0  0  0  0  0  0  0  0  0  0  0
    7.0442    8.7990    0.0000 F   0  0  0  0  0  0  0  0  0  0  0  0
    9.0933    8.2500    0.0000 C   0  0  0  0  0  0  0  0  0  0  0  0
    8.3433    9.5490    0.0000 F   0  0  0  0  0  0  0  0  0  0  0  0
    9.8433    6.9510    0.0000 F   0  0  0  0  0  0  0  0  0  0  0  0
   10.3923    9.0000    0.0000 C   0  0  0  0  0  0  0  0  0  0  0  0
   11.1423    7.7010    0.0000 F   0  0  0  0  0  0  0  0  0  0  0  0
    9.6423   10.2990    0.0000 F   0  0  0  0  0  0  0  0  0  0  0  0
   11.6913    9.7500    0.0000 C   0  0  0  0  0  0  0  0  0  0  0  0
   10.9413   11.0490    0.0000 F   0  0  0  0  0  0  0  0  0  0  0  0
   12.4413    8.4510    0.0000 F   0  0  0  0  0  0  0  0  0  0  0  0
   12.9904   10.5000    0.0000 C   0  0  0  0  0  0  0  0  0  0  0  0
   14.2894   11.2500    0.0000 F   0  0  0  0  0  0  0  0  0  0  0  0
   13.7404    9.2010    0.0000 F   0  0  0  0  0  0  0  0  0  0  0  0
   12.2404   11.7990    0.0000 F   0  0  0  0  0  0  0  0  0  0  0  0
    2.5981   -0.0000    0.0000 C   0  0  0  0  0  0  0  0  0  0  0  0
    3.8971    0.7500    0.0000 C   0  0  0  0  0  0  0  0  0  0  0  0
    5.1962   -0.0000    0.0000 O   0  0  0  0  0  0  0  0  0  0  0  0
    2.5981   -1.5000    0.0000 S   0  0  0  0  0  0  0  0  0  0  0  0
    3.8971   -2.2500    0.0000 C   0  0  0  0  0  0  0  0  0  0  0  0
    3.8971   -3.7500    0.0000 C   0  0  0  0  0  0  0  0  0  0  0  0
    5.1962   -4.5000    0.0000 C   0  0  0  0  0  0  0  0  0  0  0  0
    4.4462   -5.7990    0.0000 F   0  0  0  0  0  0  0  0  0  0  0  0
    5.9462   -3.2010    0.0000 F   0  0  0  0  0  0  0  0  0  0  0  0
    6.4952   -5.2500    0.0000 C   0  0  0  0  0  0  0  0  0  0  0  0
    7.2452   -3.9510    0.0000 F   0  0  0  0  0  0  0  0  0  0  0  0
    5.7452   -6.5490    0.0000 F   0  0  0  0  0  0  0  0  0  0  0  0
    7.7942   -6.0000    0.0000 C   0  0  0  0  0  0  0  0  0  0  0  0
    7.0442   -7.2990    0.0000 F   0  0  0  0  0  0  0  0  0  0  0  0
    8.5442   -4.7010    0.0000 F   0  0  0  0  0  0  0  0  0  0  0  0
    9.0933   -6.7500    0.0000 C   0  0  0  0  0  0  0  0  0  0  0  0
    9.8433   -5.4510    0.0000 F   0  0  0  0  0  0  0  0  0  0  0  0
    8.3433   -8.0490    0.0000 F   0  0  0  0  0  0  0  0  0  0  0  0
   10.3923   -7.5000    0.0000 C   0  0  0  0  0  0  0  0  0  0  0  0
    9.6423   -8.7990    0.0000 F   0  0  0  0  0  0  0  0  0  0  0  0
   11.1423   -6.2010    0.0000 F   0  0  0  0  0  0  0  0  0  0  0  0
   11.6913   -8.2500    0.0000 C   0  0  0  0  0  0  0  0  0  0  0  0
   12.4413   -6.9510    0.0000 F   0  0  0  0  0  0  0  0  0  0  0  0
   10.9413   -9.5490    0.0000 F   0  0  0  0  0  0  0  0  0  0  0  0
   12.9904   -9.0000    0.0000 C   0  0  0  0  0  0  0  0  0  0  0  0
   12.2404  -10.2990    0.0000 F   0  0  0  0  0  0  0  0  0  0  0  0
   13.7404   -7.7010    0.0000 F   0  0  0  0  0  0  0  0  0  0  0  0
   14.2894   -9.7500    0.0000 C   0  0  0  0  0  0  0  0  0  0  0  0
   15.5885  -10.5000    0.0000 F   0  0  0  0  0  0  0  0  0  0  0  0
   15.0394   -8.4510    0.0000 F   0  0  0  0  0  0  0  0  0  0  0  0
   13.5394  -11.0490    0.0000 F   0  0  0  0  0  0  0  0  0  0  0  0
  1  2  1  0
  2  3  1  0
  3  4  1  0
  4  5  1  0
  5  6  1  0
  6  7  1  0
  7  8  1  0
  7  9  1  0
  7 10  1  0
 10 11  1  0
 10 12  1  0
 10 13  1  0
 13 14  1  0
 13 15  1  0
 13 16  1  0
 16 17  1  0
 16 18  1  0
 16 19  1  0
 19 20  1  0
 19 21  1  0
 19 22  1  0
 22 23  1  0
 22 24  1  0
 22 25  1  0
 25 26  1  0
 25 27  1  0
 25 28  1  0
 28 29  1  0
 28 30  1  0
 28 31  1  0
  3 32  1  0
 32 33  1  0
 33 34  1  0
 32 35  1  0
 35 36  1  0
 36 37  1  0
 37 38  1  0
 38 39  1  0
 38 40  1  0
 38 41  1  0
 41 42  1  0
 41 43  1  0
 41 44  1  0
 44 45  1  0
 44 46  1  0
 44 47  1  0
 47 48  1  0
 47 49  1  0
 47 50  1  0
 50 51  1  0
 50 52  1  0
 50 53  1  0
 53 54  1  0
 53 55  1  0
 53 56  1  0
 56 57  1  0
 56 58  1  0
 56 59  1  0
 59 60  1  0
 59 61  1  0
 59 62  1  0
M  END
$$$$

     RDKit          2D

 44 41  0  0  0  0  0  0  0  0999 V2000
   -3.5490   -0.5490    0.0000 O   0  0  0  0  0  0  0  0  0  0  0  0
   -2.2500   -1.2990    0.0000 P   0  0  0  0  0  0  0  0  0  0  0  0
   -0.9510   -2.0490    0.0000 O   0  0  0  0  0  0  0  0  0  0  0  0
   -3.0000   -2.5981    0.0000 O   0  0  0  0  0  0  0  0  0  0  0  0
   -1.5000    0.0000    0.0000 O   0  0  0  0  0  0  0  0  0  0  0  0
    0.0000    0.0000    0.0000 C   0  0  0  0  0  0  0  0  0  0  0  0
    0.0000    1.5000    0.0000 F   0  0  0  0  0  0  0  0  0  0  0  0
   -0.0000   -1.5000    0.0000 F   0  0  0  0  0  0  0  0  0  0  0  0
    1.5000    0.0000    0.0000 C   0  0  0  0  0  0  0  0  0  0  0  0
    1.5000    1.5000    0.0000 F   0  0  0  0  0  0  0  0  0  0  0  0
    1.5000   -1.5000    0.0000 F   0  0  0  0  0  0  0  0  0  0  0  0
    3.0000    0.0000    0.0000 C   0  0  0  0  0  0  0  0  0  0  0  0
    3.0000   -1.5000    0.0000 F   0  0  0  0  0  0  0  0  0  0  0  0
    3.0000    1.5000    0.0000 F   0  0  0  0  0  0  0  0  0  0  0  0
    4.5000    0.0000    0.0000 C   0  0  0  0  0  0  0  0  0  0  0  0
    4.5000    1.5000    0.0000 F   0  0  0  0  0  0  0  0  0  0  0  0
    4.5000   -1.5000    0.0000 F   0  0  0  0  0  0  0  0  0  0  0  0
    6.0000    0.0000    0.0000 C   0  0  0  0  0  0  0  0  0  0  0  0
    6.0000   -1.5000    0.0000 F   0  0  0  0  0  0  0  0  0  0  0  0
    6.0000    1.5000    0.0000 F   0  0  0  0  0  0  0  0  0  0  0  0
    7.5000    0.0000    0.0000 C   0  0  0  0  0  0  0  0  0  0  0  0
    7.5000    1.5000    0.0000 F   0  0  0  0  0  0  0  0  0  0  0  0
    7.5000   -1.5000    0.0000 F   0  0  0  0  0  0  0  0  0  0  0  0
    9.0000    0.0000    0.0000 C   0  0  0  0  0  0  0  0  0  0  0  0
    9.0000    1.5000    0.0000 F   0  0  0  0  0  0  0  0  0  0  0  0
    9.0000   -1.5000    0.0000 F   0  0  0  0  0  0  0  0  0  0  0  0
   10.5000    0.0000    0.0000 C   0  0  0  0  0  0  0  0  0  0  0  0
   10.5000   -1.5000    0.0000 F   0  0  0  0  0  0  0  0  0  0  0  0
   10.5000    1.5000    0.0000 F   0  0  0  0  0  0  0  0  0  0  0  0
   12.0000    0.0000    0.0000 C   0  0  0  0  0  0  0  0  0  0  0  0
   12.0000    1.5000    0.0000 F   0  0  0  0  0  0  0  0  0  0  0  0
   12.0000   -1.5000    0.0000 F   0  0  0  0  0  0  0  0  0  0  0  0
   13.5000    0.0000    0.0000 C   0  0  0  0  0  0  0  0  0  0  0  0
   13.5000   -1.5000    0.0000 F   0  0  0  0  0  0  0  0  0  0  0  0
   13.5000    1.5000    0.0000 F   0  0  0  0  0  0  0  0  0  0  0  0
   15.0000    0.0000    0.0000 C   0  0  0  0  0  0  0  0  0  0  0  0
   15.0000    1.5000    0.0000 F   0  0  0  0  0  0  0  0  0  0  0  0
   15.0000   -1.5000    0.0000 F   0  0  0  0  0  0  0  0  0  0  0  0
   16.5000    0.0000    0.0000 C   0  0  0  0  0  0  0  0  0  0  0  0
   18.0000    0.0000    0.0000 F   0  0  0  0  0  0  0  0  0  0  0  0
   16.5000   -1.5000    0.0000 F   0  0  0  0  0  0  0  0  0  0  0  0
   16.5000    1.5000    0.0000 F   0  0  0  0  0  0  0  0  0  0  0  0
    0.0000    2.5000    0.0000 Na  0  0  0  0  0 15  0  0  0  0  0  0
    0.0000    3.5000    0.0000 Na  0  0  0  0  0 15  0  0  0  0  0  0
  1  2  2  0
  2  3  1  0
  2  4  1  0
  2  5  1  0
  5  6  1  0
  6  7  1  0
  6  8  1  0
  6  9  1  0
  9 10  1  0
  9 11  1  0
  9 12  1  0
 12 13  1  0
 12 14  1  0
 12 15  1  0
 15 16  1  0
 15 17  1  0
 15 18  1  0
 18 19  1  0
 18 20  1  0
 18 21  1  0
 21 22  1  0
 21 23  1  0
 21 24  1  0
 24 25  1  0
 24 26  1  0
 24 27  1  0
 27 28  1  0
 27 29  1  0
 27 30  1  0
 30 31  1  0
 30 32  1  0
 30 33  1  0
 33 34  1  0
 33 35  1  0
 33 36  1  0
 36 37  1  0
 36 38  1  0
 36 39  1  0
 39 40  1  0
 39 41  1  0
 39 42  1  0
M  CHG  4   3  -1   4  -1  43   1  44   1
M  END
$$$$

     RDKit          2D

 43 44  0  0  0  0  0  0  0  0999 V2000
    5.2500   -3.8971    0.0000 O   0  0  0  0  0  0  0  0  0  0  0  0
    6.0000   -2.5981    0.0000 C   0  0  0  0  0  0  0  0  0  0  0  0
    5.2500   -1.2990    0.0000 N   0  0  0  0  0  0  0  0  0  0  0  0
    3.7500   -1.2990    0.0000 N   0  0  0  0  0  0  0  0  0  0  0  0
    3.0000    0.0000    0.0000 C   0  0  0  0  0  0  0  0  0  0  0  0
    1.5000    0.0000    0.0000 C   0  0  0  0  0  0  0  0  0  0  0  0
    0.7500   -1.2990    0.0000 C   0  0  0  0  0  0  0  0  0  0  0  0
   -0.7500   -1.2990    0.0000 C   0  0  0  0  0  0  0  0  0  0  0  0
   -1.5000    0.0000    0.0000 C   0  0  0  0  0  0  0  0  0  0  0  0
   -3.0000    0.0000    0.0000 O   0  0  0  0  0  0  0  0  0  0  0  0
   -3.7500    1.2990    0.0000 C   0  0  0  0  0  0  0  0  0  0  0  0
   -3.0000    2.5981    0.0000 C   0  0  0  0  0  0  0  0  0  0  0  0
   -3.7500    3.8971    0.0000 C   0  0  0  0  0  0  0  0  0  0  0  0
   -5.2500    3.8971    0.0000 C   0  0  0  0  0  0  0  0  0  0  0  0
   -6.0000    5.1962    0.0000 N   0  0  0  0  0  0  0  0  0  0  0  0
   -7.5000    5.1962    0.0000 O   0  0  0  0  0  0  0  0  0  0  0  0
   -5.2500    6.4952    0.0000 O   0  0  0  0  0  0  0  0  0  0  0  0
   -6.0000    2.5981    0.0000 C   0  0  0  0  0  0  0  0  0  0  0  0
   -5.2500    1.2990    0.0000 C   0  0  0  0  0  0  0  0  0  0  0  0
   -6.0000    0.0000    0.0000 N   0  0  0  0  0  0  0  0  0  0  0  0
   -5.2500   -1.2990    0.0000 O   0  0  0  0  0  0  0  0  0  0  0  0
   -7.5000    0.0000    0.0000 O   0  0  0  0  0  0  0  0  0  0  0  0
   -0.7500    1.2990    0.0000 C   0  0  0  0  0  0  0  0  0  0  0  0
    0.7500    1.2990    0.0000 C   0  0  0  0  0  0  0  0  0  0  0  0
    7.5000   -2.5981    0.0000 C   0  0  0  0  0  0  0  0  0  0  0  0
    7.5000   -4.0981    0.0000 F   0  0  0  0  0  0  0  0  0  0  0  0
    7.5000   -1.0981    0.0000 F   0  0  0  0  0  0  0  0  0  0  0  0
    9.0000   -2.5981    0.0000 C   0  0  0  0  0  0  0  0  0  0  0  0
    9.0000   -1.0981    0.0000 F   0  0  0  0  0  0  0  0  0  0  0  0
    9.0000   -4.0981    0.0000 F   0  0  0  0  0  0  0  0  0  0  0  0
   10.5000   -2.5981    0.0000 C   0  0  0  0  0  0  0  0  0  0  0  0
   10.5000   -4.0981    0.0000 F   0  0  0  0  0  0  0  0  0  0  0  0
   10.5000   -1.0981    0.0000 F   0  0  0  0  0  0  0  0  0  0  0  0
   12.0000   -2.5981    0.0000 C   0  0  0  0  0  0  0  0  0  0  0  0
   12.0000   -1.0981    0.0000 F   0  0  0  0  0  0  0  0  0  0  0  0
   12.0000   -4.0981    0.0000 F   0  0  0  0  0  0  0  0  0  0  0  0
   13.5000   -2.5981    0.0000 C   0  0  0  0  0  0  0  0  0  0  0  0
   13.5000   -4.0981    0.0000 F   0  0  0  0  0  0  0  0  0  0  0  0
   13.5000   -1.0981    0.0000 F   0  0  0  0  0  0  0  0  0  0  0  0
   15.0000   -2.5981    0.0000 C   0  0  0  0  0  0  0  0  0  0  0  0
   16.5000   -2.5981    0.0000 F   0  0  0  0  0  0  0  0  0  0  0  0
   15.0000   -1.0981    0.0000 F   0  0  0  0  0  0  0  0  0  0  0  0
   15.0000   -4.0981    0.0000 F   0  0  0  0  0  0  0  0  0  0  0  0
  1  2  2  0
  2  3  1  0
  3  4  1  0
  4  5  2  3
  5  6  1  0
  6  7  2  0
  7  8  1  0
  8  9  2  0
  9 10  1  0
 10 11  1  0
 11 12  2  0
 12 13  1  0
 13 14  2  0
 14 15  1  0
 15 16  2  0
 15 17  1  0
 14 18  1  0
 18 19  2  0
 19 20  1  0
 20 21  2  0
 20 22  1  0
  9 23  1  0
 23 24  2  0
  2 25  1  0
 25 26  1  0
 25 27  1  0
 25 28  1  0
 28 29  1  0
 28 30  1  0
 28 31  1  0
 31 32  1  0
 31 33  1  0
 31 34  1  0
 34 35  1  0
 34 36  1  0
 34 37  1  0
 37 38  1  0
 37 39  1  0
 37 40  1  0
 40 41  1  0
 40 42  1  0
 40 43  1  0
 24  6  1  0
 19 11  1  0
M  CHG  4  15   1  17  -1  20   1  22  -1
M  END
$$$$

     RDKit          2D

 32 31  0  0  0  0  0  0  0  0999 V2000
    7.0981    4.0981    0.0000 C   0  0  0  0  0  0  0  0  0  0  0  0
    5.7990    3.3481    0.0000 N   0  0  0  0  0  0  0  0  0  0  0  0
    4.5000    2.5981    0.0000 C   0  0  0  0  0  0  0  0  0  0  0  0
    5.0490    4.6471    0.0000 C   0  0  0  0  0  0  0  0  0  0  0  0
    3.5490    4.6471    0.0000 C   0  0  0  0  0  0  0  0  0  0  0  0
    2.7990    5.9462    0.0000 O   0  0  0  0  0  0  0  0  0  0  0  0
    6.5490    2.0490    0.0000 C   0  0  0  0  0  0  0  0  0  0  0  0
    5.7990    0.7500    0.0000 C   0  0  0  0  0  0  0  0  0  0  0  0
    6.5490   -0.5490    0.0000 C   0  0  0  0  0  0  0  0  0  0  0  0
    5.7990   -1.8481    0.0000 N   0  0  0  0  0  0  0  0  0  0  0  0
    6.5490   -3.1471    0.0000 S   0  0  0  0  0  0  0  0  0  0  0  0
    7.8481   -2.3971    0.0000 O   0  0  0  0  0  0  0  0  0  0  0  0
    5.8152   -3.4586    0.0000 O   0  0  0  0  0  0  0  0  0  0  0  0
    7.2990   -4.4462    0.0000 C   0  0  0  0  0  0  0  0  0  0  0  0
    8.5981   -3.6962    0.0000 F   0  0  0  0  0  0  0  0  0  0  0  0
    8.0490   -5.7452    0.0000 F   0  0  0  0  0  0  0  0  0  0  0  0
    6.0000   -5.1962    0.0000 C   0  0  0  0  0  0  0  0  0  0  0  0
    5.4669   -4.4888    0.0000 F   0  0  0  0  0  0  0  0  0  0  0  0
    6.7500   -6.4952    0.0000 F   0  0  0  0  0  0  0  0  0  0  0  0
    4.7010   -5.9462    0.0000 C   0  0  0  0  0  0  0  0  0  0  0  0
    5.4510   -7.2452    0.0000 F   0  0  0  0  0  0  0  0  0  0  0  0
    3.9510   -4.6471    0.0000 F   0  0  0  0  0  0  0  0  0  0  0  0
    3.4019   -6.6962    0.0000 C   0  0  0  0  0  0  0  0  0  0  0  0
    4.1519   -7.9952    0.0000 F   0  0  0  0  0  0  0  0  0  0  0  0
    2.6519   -5.3971    0.0000 F   0  0  0  0  0  0  0  0  0  0  0  0
    2.1029   -7.4462    0.0000 C   0  0  0  0  0  0  0  0  0  0  0  0
    1.3529   -6.1471    0.0000 F   0  0  0  0  0  0  0  0  0  0  0  0
    2.8529   -8.7452    0.0000 F   0  0  0  0  0  0  0  0  0  0  0  0
    0.8038   -8.1962    0.0000 C   0  0  0  0  0  0  0  0  0  0  0  0
   -0.4952   -8.9462    0.0000 F   0  0  0  0  0  0  0  0  0  0  0  0
    1.5538   -9.4952    0.0000 F   0  0  0  0  0  0  0  0  0  0  0  0
    0.0538   -6.8971    0.0000 F   0  0  0  0  0  0  0  0  0  0  0  0
  1  2  1  0
  2  3  1  0
  2  4  1  0
  4  5  1  0
  5  6  1  0
  2  7  1  0
  7  8  1  0
  8  9  1  0
  9 10  1  0
 10 11  1  0
 11 12  2  0
 11 13  2  0
 11 14  1  0
 14 15  1  0
 14 16  1  0
 14 17  1  0
 17 18  1  0
 17 19  1  0
 17 20  1  0
 20 21  1  0
 20 22  1  0
 20 23  1  0
 23 24  1  0
 23 25  1  0
 23 26  1  0
 26 27  1  0
 26 28  1  0
 26 29  1  0
 29 30  1  0
 29 31  1  0
 29 32  1  0
M  CHG  2   2   1  10  -1
M  END
$$$$

     RDKit          2D

 13 13  0  0  0  0  0  0  0  0999 V2000
    2.7760    0.0000    0.0000 F   0  0  0  0  0  0  0  0  0  0  0  0
    1.2760    0.0000    0.0000 C   0  0  0  0  0  0  0  0  0  0  0  0
    0.3943    1.2135    0.0000 C   0  0  0  0  0  0  0  0  0  0  0  0
    0.8578    2.6401    0.0000 F   0  0  0  0  0  0  0  0  0  0  0  0
   -1.0323    0.7500    0.0000 C   0  0  0  0  0  0  0  0  0  0  0  0
   -2.5241    0.5932    0.0000 F   0  0  0  0  0  0  0  0  0  0  0  0
   -1.3442    2.2172    0.0000 F   0  0  0  0  0  0  0  0  0  0  0  0
   -1.0323   -0.7500    0.0000 C   0  0  0  0  0  0  0  0  0  0  0  0
   -1.3442   -2.2172    0.0000 F   0  0  0  0  0  0  0  0  0  0  0  0
   -2.5241   -0.5932    0.0000 F   0  0  0  0  0  0  0  0  0  0  0  0
    0.3943   -1.2135    0.0000 C   0  0  0  0  0  0  0  0  0  0  0  0
    1.6933   -1.9635    0.0000 F   0  0  0  0  0  0  0  0  0  0  0  0
   -0.2158   -2.5838    0.0000 F   0  0  0  0  0  0  0  0  0  0  0  0
  2  1  1  1
  2  3  1  0
  3  4  1  1
  3  5  1  0
  5  6  1  0
  5  7  1  0
  5  8  1  0
  8  9  1  0
  8 10  1  0
  8 11  1  0
 11 12  1  0
 11 13  1  0
 11  2  1  0
M  END
$$$$

     RDKit          2D

 17 16  0  0  0  0  0  0  0  0999 V2000
    0.0000    0.0000    0.0000 C   0  0  0  0  0  0  0  0  0  0  0  0
    1.2990    0.7500    0.0000 C   0  0  0  0  0  0  0  0  0  0  0  0
    2.5981   -0.0000    0.0000 O   0  0  0  0  0  0  0  0  0  0  0  0
    3.8971    0.7500    0.0000 C   0  0  0  0  0  0  0  0  0  0  0  0
    3.8971    2.2500    0.0000 O   0  0  0  0  0  0  0  0  0  0  0  0
    5.1962   -0.0000    0.0000 O   0  0  0  0  0  0  0  0  0  0  0  0
    6.4952    0.7500    0.0000 C   0  0  0  0  0  0  0  0  0  0  0  0
    7.7942   -0.0000    0.0000 C   0  0  0  0  0  0  0  0  0  0  0  0
    8.5442    1.2990    0.0000 F   0  0  0  0  0  0  0  0  0  0  0  0
    7.0442   -1.2990    0.0000 F   0  0  0  0  0  0  0  0  0  0  0  0
    9.0933   -0.7500    0.0000 C   0  0  0  0  0  0  0  0  0  0  0  0
    8.3433   -2.0490    0.0000 F   0  0  0  0  0  0  0  0  0  0  0  0
    9.8433    0.5490    0.0000 F   0  0  0  0  0  0  0  0  0  0  0  0
   10.3923   -1.5000    0.0000 C   0  0  0  0  0  0  0  0  0  0  0  0
   11.6913   -2.2500    0.0000 F   0  0  0  0  0  0  0  0  0  0  0  0
   11.1423   -0.2010    0.0000 F   0  0  0  0  0  0  0  0  0  0  0  0
    9.6423   -2.7990    0.0000 F   0  0  0  0  0  0  0  0  0  0  0  0
  1  2  1  0
  2  3  1  0
  3  4  1  0
  4  5  2  0
  4  6  1  0
  6  7  1  0
  7  8  1  0
  8  9  1  0
  8 10  1  0
  8 11  1  0
 11 12  1  0
 11 13  1  0
 11 14  1  0
 14 15  1  0
 14 16  1  0
 14 17  1  0
M  END
$$$$

     RDKit          2D

 21 21  0  0  0  0  0  0  0  0999 V2000
    3.7500    1.2990    0.0000 O   0  0  0  0  0  0  0  0  0  0  0  0
    3.0000    0.0000    0.0000 C   0  0  0  0  0  0  0  0  0  0  0  0
    1.5000    0.0000    0.0000 C   0  0  0  0  0  0  0  0  0  0  0  0
    0.7500   -1.2990    0.0000 C   0  0  0  0  0  0  0  0  0  0  0  0
   -0.7500   -1.2990    0.0000 C   0  0  0  0  0  0  0  0  0  0  0  0
   -1.5000    0.0000    0.0000 C   0  0  0  0  0  0  0  0  0  0  0  0
   -0.7500    1.2990    0.0000 C   0  0  0  0  0  0  0  0  0  0  0  0
    0.7500    1.2990    0.0000 C   0  0  0  0  0  0  0  0  0  0  0  0
    3.7500   -1.2990    0.0000 C   0  0  0  0  0  0  0  0  0  0  0  0
    5.0490   -0.5490    0.0000 F   0  0  0  0  0  0  0  0  0  0  0  0
    2.4510   -2.0490    0.0000 F   0  0  0  0  0  0  0  0  0  0  0  0
    4.5000   -2.5981    0.0000 C   0  0  0  0  0  0  0  0  0  0  0  0
    3.2010   -3.3481    0.0000 F   0  0  0  0  0  0  0  0  0  0  0  0
    5.7990   -1.8481    0.0000 F   0  0  0  0  0  0  0  0  0  0  0  0
    5.2500   -3.8971    0.0000 C   0  0  0  0  0  0  0  0  0  0  0  0
    6.5490   -3.1471    0.0000 F   0  0  0  0  0  0  0  0  0  0  0  0
    3.9510   -4.6471    0.0000 F   0  0  0  0  0  0  0  0  0  0  0  0
    6.0000   -5.1962    0.0000 C   0  0  0  0  0  0  0  0  0  0  0  0
    6.7500   -6.4952    0.0000 F   0  0  0  0  0  0  0  0  0  0  0  0
    4.7010   -5.9462    0.0000 F   0  0  0  0  0  0  0  0  0  0  0  0
    7.2990   -4.4462    0.0000 F   0  0  0  0  0  0  0  0  0  0  0  0
  1  2  2  0
  2  3  1  0
  3  4  2  0
  4  5  1  0
  5  6  2  0
  6  7  1  0
  7  8  2  0
  2  9  1  0
  9 10  1  0
  9 11  1  0
  9 12  1  0
 12 13  1  0
 12 14  1  0
 12 15  1  0
 15 16  1  0
 15 17  1  0
 15 18  1  0
 18 19  1  0
 18 20  1  0
 18 21  1  0
  8  3  1  0
M  END
$$$$

     RDKit          2D

 15 14  0  0  0  0  0  0  0  0999 V2000
    0.0000    0.0000    0.0000 C   0  0  0  0  0  0  0  0  0  0  0  0
    1.2990    0.7500    0.0000 O   0  0  0  0  0  0  0  0  0  0  0  0
    2.5981   -0.0000    0.0000 C   0  0  0  0  0  0  0  0  0  0  0  0
    3.8971    0.7500    0.0000 C   0  0  0  0  0  0  0  0  0  0  0  0
    4.6471   -0.5490    0.0000 F   0  0  0  0  0  0  0  0  0  0  0  0
    3.1471    2.0490    0.0000 F   0  0  0  0  0  0  0  0  0  0  0  0
    5.1962    1.5000    0.0000 C   0  0  0  0  0  0  0  0  0  0  0  0
    4.4462    2.7990    0.0000 F   0  0  0  0  0  0  0  0  0  0  0  0
    5.9462    0.2010    0.0000 F   0  0  0  0  0  0  0  0  0  0  0  0
    6.4952    2.2500    0.0000 C   0  0  0  0  0  0  0  0  0  0  0  0
    5.7452    3.5490    0.0000 F   0  0  0  0  0  0  0  0  0  0  0  0
    7.2452    0.9510    0.0000 F   0  0  0  0  0  0  0  0  0  0  0  0
    7.7942    3.0000    0.0000 C   0  0  0  0  0  0  0  0  0  0  0  0
    7.7942    4.5000    0.0000 F   0  0  0  0  0  0  0  0  0  0  0  0
    9.0933    2.2500    0.0000 F   0  0  0  0  0  0  0  0  0  0  0  0
  1  2  1  0
  2  3  1  0
  3  4  1  0
  4  5  1  0
  4  6  1  0
  4  7  1  0
  7  8  1  0
  7  9  1  0
  7 10  1  0
 10 11  1  0
 10 12  1  0
 10 13  1  0
 13 14  1  0
 13 15  1  0
M  END
$$$$

     RDKit          2D

 89 95  0  0  0  0  0  0  0  0999 V2000
  -11.6771    6.5991    0.0000 C   0  0  0  0  0  0  0  0  0  0  0  0
  -10.6734    5.4844    0.0000 O   0  0  0  0  0  0  0  0  0  0  0  0
   -9.2061    5.7963    0.0000 C   0  0  0  0  0  0  0  0  0  0  0  0
   -8.7426    7.2228    0.0000 C   0  0  0  0  0  0  0  0  0  0  0  0
   -7.2754    7.5347    0.0000 C   0  0  0  0  0  0  0  0  0  0  0  0
   -6.2717    6.4200    0.0000 C   0  0  0  0  0  0  0  0  0  0  0  0
   -4.8045    6.7319    0.0000 C   0  0  0  0  0  0  0  0  0  0  0  0
   -4.4926    5.2646    0.0000 O   0  0  0  0  0  0  0  0  0  0  0  0
   -5.6073    4.2609    0.0000 C   0  0  0  0  0  0  0  0  0  0  0  0
   -5.2955    2.7937    0.0000 C   0  0  0  0  0  0  0  0  0  0  0  0
   -3.9251    2.1836    0.0000 O   0  0  0  0  0  0  0  0  0  0  0  0
   -4.0819    0.6918    0.0000 C   0  0  0  0  0  0  0  0  0  0  0  0
   -2.9672   -0.3119    0.0000 N   0  0  0  0  0  0  0  0  0  0  0  0
   -3.1240   -1.8037    0.0000 C   0  0  0  0  0  0  0  0  0  0  0  0
   -1.7537   -2.4138    0.0000 N   0  0  0  0  0  0  0  0  0  0  0  0
   -0.7500   -1.2990    0.0000 C   0  0  0  0  0  0  0  0  0  0  0  0
    0.7500   -1.2990    0.0000 C   0  0  0  0  0  0  0  0  0  0  0  0
    1.5000   -2.5981    0.0000 N   0  0  0  0  0  0  0  0  0  0  0  0
    3.0000   -2.5981    0.0000 C   0  0  0  0  0  0  0  0  0  0  0  0
    3.7500   -1.2990    0.0000 O   0  0  0  0  0  0  0  0  0  0  0  0
    3.7500   -3.8971    0.0000 C   0  0  0  0  0  0  0  0  0  0  0  0
    3.0000   -5.1962    0.0000 C   0  0  0  0  0  0  0  0  0  0  0  0
    3.7500   -6.4952    0.0000 C   0  0  0  0  0  0  0  0  0  0  0  0
    5.2500   -6.4952    0.0000 C   0  0  0  0  0  0  0  0  0  0  0  0
    6.0000   -5.1962    0.0000 C   0  0  0  0  0  0  0  0  0  0  0  0
    5.2500   -3.8971    0.0000 C   0  0  0  0  0  0  0  0  0  0  0  0
    1.5000    0.0000    0.0000 N   0  0  0  0  0  0  0  0  0  0  0  0
    0.7500    1.2990    0.0000 C   0  0  0  0  0  0  0  0  0  0  0  0
   -0.7500    1.2990    0.0000 N   0  0  0  0  0  0  0  0  0  0  0  0
   -1.5000    0.0000    0.0000 C   0  0  0  0  0  0  0  0  0  0  0  0
   -5.5492    0.3800    0.0000 C   0  0  0  0  0  0  0  0  0  0  0  0
   -6.2992    1.6790    0.0000 C   0  0  0  0  0  0  0  0  0  0  0  0
   -7.7909    1.8358    0.0000 O   0  0  0  0  0  0  0  0  0  0  0  0
   -8.6726    0.6223    0.0000 P   0  0  0  0  0  0  0  0  0  0  0  0
   -8.0625   -0.7481    0.0000 O   0  0  0  0  0  0  0  0  0  0  0  0
   -8.9442   -1.9616    0.0000 C   0  0  0  0  0  0  0  0  0  0  0  0
   -8.3341   -3.3319    0.0000 C   0  0  0  0  0  0  0  0  0  0  0  0
   -9.2158   -4.5454    0.0000 C   0  0  0  0  0  0  0  0  0  0  0  0
  -10.0974   -5.7589    0.0000 N   0  0  0  0  0  0  0  0  0  0  0  0
  -10.1644    0.7791    0.0000 N   0  0  0  0  0  0  0  0  0  0  0  0
  -11.0461   -0.4345    0.0000 C   0  0  0  0  0  0  0  0  0  0  0  0
  -12.5379   -0.2777    0.0000 C   0  0  0  0  0  0  0  0  0  0  0  0
  -10.4360   -1.8048    0.0000 C   0  0  0  0  0  0  0  0  0  0  0  0
  -10.7745    2.1494    0.0000 C   0  0  0  0  0  0  0  0  0  0  0  0
  -12.2663    2.3062    0.0000 C   0  0  0  0  0  0  0  0  0  0  0  0
   -9.8928    3.3629    0.0000 C   0  0  0  0  0  0  0  0  0  0  0  0
   -3.3373    7.0437    0.0000 C   0  0  0  0  0  0  0  0  0  0  0  0
   -2.3336    5.9290    0.0000 C   0  0  0  0  0  0  0  0  0  0  0  0
   -0.8663    6.2409    0.0000 C   0  0  0  0  0  0  0  0  0  0  0  0
   -0.4028    7.6675    0.0000 C   0  0  0  0  0  0  0  0  0  0  0  0
    1.0644    7.9793    0.0000 C   0  0  0  0  0  0  0  0  0  0  0  0
    2.0681    6.8646    0.0000 C   0  0  0  0  0  0  0  0  0  0  0  0
    3.5353    7.1765    0.0000 C   0  0  0  0  0  0  0  0  0  0  0  0
    3.8472    5.7093    0.0000 F   0  0  0  0  0  0  0  0  0  0  0  0
    3.2235    8.6437    0.0000 F   0  0  0  0  0  0  0  0  0  0  0  0
    5.0025    7.4883    0.0000 C   0  0  0  0  0  0  0  0  0  0  0  0
    4.6907    8.9556    0.0000 F   0  0  0  0  0  0  0  0  0  0  0  0
    5.3144    6.0211    0.0000 F   0  0  0  0  0  0  0  0  0  0  0  0
    6.4698    7.8002    0.0000 C   0  0  0  0  0  0  0  0  0  0  0  0
    6.7816    6.3330    0.0000 F   0  0  0  0  0  0  0  0  0  0  0  0
    6.1579    9.2674    0.0000 F   0  0  0  0  0  0  0  0  0  0  0  0
    7.9370    8.1121    0.0000 C   0  0  0  0  0  0  0  0  0  0  0  0
    7.6251    9.5793    0.0000 F   0  0  0  0  0  0  0  0  0  0  0  0
    8.2489    6.6449    0.0000 F   0  0  0  0  0  0  0  0  0  0  0  0
    9.4042    8.4239    0.0000 C   0  0  0  0  0  0  0  0  0  0  0  0
    9.7161    6.9567    0.0000 F   0  0  0  0  0  0  0  0  0  0  0  0
    9.0923    9.8912    0.0000 F   0  0  0  0  0  0  0  0  0  0  0  0
   10.8714    8.7358    0.0000 C   0  0  0  0  0  0  0  0  0  0  0  0
   10.5596   10.2030    0.0000 F   0  0  0  0  0  0  0  0  0  0  0  0
   11.1833    7.2686    0.0000 F   0  0  0  0  0  0  0  0  0  0  0  0
   12.3386    9.0477    0.0000 C   0  0  0  0  0  0  0  0  0  0  0  0
   12.6505    7.5805    0.0000 F   0  0  0  0  0  0  0  0  0  0  0  0
   12.0268   10.5149    0.0000 F   0  0  0  0  0  0  0  0  0  0  0  0
   13.8059    9.3595    0.0000 C   0  0  0  0  0  0  0  0  0  0  0  0
   15.2731    9.6714    0.0000 F   0  0  0  0  0  0  0  0  0  0  0  0
   13.4940   10.8268    0.0000 F   0  0  0  0  0  0  0  0  0  0  0  0
   14.1177    7.8923    0.0000 F   0  0  0  0  0  0  0  0  0  0  0  0
   -1.4065    8.7822    0.0000 C   0  0  0  0  0  0  0  0  0  0  0  0
   -2.8737    8.4703    0.0000 C   0  0  0  0  0  0  0  0  0  0  0  0
   -5.1163    8.1991    0.0000 C   0  0  0  0  0  0  0  0  0  0  0  0
   -4.0016    9.2028    0.0000 C   0  0  0  0  0  0  0  0  0  0  0  0
   -4.3135   10.6700    0.0000 C   0  0  0  0  0  0  0  0  0  0  0  0
   -5.7401   11.1335    0.0000 C   0  0  0  0  0  0  0  0  0  0  0  0
   -6.0520   12.6007    0.0000 O   0  0  0  0  0  0  0  0  0  0  0  0
   -4.9372   13.6044    0.0000 C   0  0  0  0  0  0  0  0  0  0  0  0
   -6.8548   10.1298    0.0000 C   0  0  0  0  0  0  0  0  0  0  0  0
   -6.5429    8.6626    0.0000 C   0  0  0  0  0  0  0  0  0  0  0  0
   -6.7352    4.9934    0.0000 C   0  0  0  0  0  0  0  0  0  0  0  0
   -8.2025    4.6815    0.0000 C   0  0  0  0  0  0  0  0  0  0  0  0
  1  2  1  0
  2  3  1  0
  3  4  2  0
  4  5  1  0
  5  6  2  0
  6  7  1  0
  7  8  1  0
  8  9  1  0
 10  9  1  1
 10 11  1  0
 11 12  1  0
 12 13  1  1
 13 14  1  0
 14 15  2  0
 15 16  1  0
 16 17  2  0
 17 18  1  0
 18 19  1  0
 19 20  2  0
 19 21  1  0
 21 22  2  0
 22 23  1  0
 23 24  2  0
 24 25  1  0
 25 26  2  0
 17 27  1  0
 27 28  2  0
 28 29  1  0
 29 30  2  0
 12 31  1  0
 31 32  1  0
 32 33  1  6
 33 34  1  0
 34 35  1  0
 35 36  1  0
 36 37  1  0
 37 38  1  0
 38 39  3  0
 34 40  1  0
 40 41  1  0
 41 42  1  0
 41 43  1  0
 40 44  1  0
 44 45  1  0
 44 46  1  0
  7 47  1  0
 47 48  2  0
 48 49  1  0
 49 50  2  0
 50 51  1  0
 51 52  1  0
 52 53  1  0
 53 54  1  0
 53 55  1  0
 53 56  1  0
 56 57  1  0
 56 58  1  0
 56 59  1  0
 59 60  1  0
 59 61  1  0
 59 62  1  0
 62 63  1  0
 62 64  1  0
 62 65  1  0
 65 66  1  0
 65 67  1  0
 65 68  1  0
 68 69  1  0
 68 70  1  0
 68 71  1  0
 71 72  1  0
 71 73  1  0
 71 74  1  0
 74 75  1  0
 74 76  1  0
 74 77  1  0
 50 78  1  0
 78 79  2  0
  7 80  1  0
 80 81  2  0
 81 82  1  0
 82 83  2  0
 83 84  1  0
 84 85  1  0
 83 86  1  0
 86 87  2  0
  6 88  1  0
 88 89  2  0
 89  3  1  0
 32 10  1  0
 79 47  1  0
 87 80  1  0
 30 13  1  0
 30 16  1  0
 26 21  1  0
M  END
$$$$

     RDKit          2D

 15 16  0  0  0  0  0  0  0  0999 V2000
   -0.5688    3.1036    0.0000 C   0  0  0  0  0  0  0  0  0  0  0  0
    0.8578    2.6401    0.0000 C   0  0  0  0  0  0  0  0  0  0  0  0
    0.3943    1.2135    0.0000 C   0  0  0  0  0  0  0  0  0  0  0  0
    1.2760    0.0000    0.0000 N   0  0  0  0  0  0  0  0  0  0  0  0
    0.3943   -1.2135    0.0000 N   0  0  0  0  0  0  0  0  0  0  0  0
   -1.0323   -0.7500    0.0000 C   0  0  0  0  0  0  0  0  0  0  0  0
   -2.2458   -1.6317    0.0000 N   0  0  0  0  0  0  0  0  0  0  0  0
   -1.0323    0.7500    0.0000 S   0  0  0  0  0  0  0  0  0  0  0  0
    2.2844    2.1766    0.0000 C   0  0  0  0  0  0  0  0  0  0  0  0
    2.7479    3.6032    0.0000 C   0  0  0  0  0  0  0  0  0  0  0  0
    3.2115    5.0298    0.0000 F   0  0  0  0  0  0  0  0  0  0  0  0
    4.1745    3.1396    0.0000 F   0  0  0  0  0  0  0  0  0  0  0  0
    1.3213    4.0667    0.0000 C   0  0  0  0  0  0  0  0  0  0  0  0
   -0.1052    4.5302    0.0000 F   0  0  0  0  0  0  0  0  0  0  0  0
    1.7849    5.4933    0.0000 F   0  0  0  0  0  0  0  0  0  0  0  0
  1  2  1  0
  2  3  1  0
  3  4  2  0
  4  5  1  0
  5  6  2  0
  6  7  1  0
  6  8  1  0
  2  9  1  0
  9 10  1  0
 10 11  1  0
 10 12  1  0
 10 13  1  0
 13 14  1  0
 13 15  1  0
 13  2  1  0
  8  3  1  0
M  END
$$$$

     RDKit          2D

 17 16  0  0  0  0  0  0  0  0999 V2000
   -2.5981   -1.5000    0.0000 O   0  0  0  0  0  0  0  0  0  0  0  0
   -2.5981    0.0000    0.0000 C   0  0  0  0  0  0  0  0  0  0  0  0
   -1.2990    0.7500    0.0000 O   0  0  0  0  0  0  0  0  0  0  0  0
    0.0000    0.0000    0.0000 C   0  0  0  0  0  0  0  0  0  0  0  0
    1.2990    0.7500    0.0000 C   0  0  0  0  0  0  0  0  0  0  0  0
    2.0490   -0.5490    0.0000 F   0  0  0  0  0  0  0  0  0  0  0  0
    0.5490    2.0490    0.0000 F   0  0  0  0  0  0  0  0  0  0  0  0
    2.5981    1.5000    0.0000 C   0  0  0  0  0  0  0  0  0  0  0  0
    1.8481    2.7990    0.0000 F   0  0  0  0  0  0  0  0  0  0  0  0
    3.3481    0.2010    0.0000 F   0  0  0  0  0  0  0  0  0  0  0  0
    3.8971    2.2500    0.0000 C   0  0  0  0  0  0  0  0  0  0  0  0
    5.1962    3.0000    0.0000 F   0  0  0  0  0  0  0  0  0  0  0  0
    4.6471    0.9510    0.0000 F   0  0  0  0  0  0  0  0  0  0  0  0
    3.1471    3.5490    0.0000 F   0  0  0  0  0  0  0  0  0  0  0  0
   -3.8971    0.7500    0.0000 C   0  0  0  0  0  0  0  0  0  0  0  0
   -5.1962    0.0000    0.0000 F   0  0  0  0  0  0  0  0  0  0  0  0
   -3.8971    2.2500    0.0000 F   0  0  0  0  0  0  0  0  0  0  0  0
  1  2  2  0
  2  3  1  0
  3  4  1  0
  4  5  1  0
  5  6  1  0
  5  7  1  0
  5  8  1  0
  8  9  1  0
  8 10  1  0
  8 11  1  0
 11 12  1  0
 11 13  1  0
 11 14  1  0
  2 15  1  0
 15 16  1  0
 15 17  1  0
M  END
$$$$

     RDKit          2D

 19 19  0  0  0  0  0  0  0  0999 V2000
    9.7500   -1.2990    0.0000 F   0  0  0  0  0  0  0  0  0  0  0  0
    8.2500   -1.2990    0.0000 C   0  0  0  0  0  0  0  0  0  0  0  0
    8.2500   -2.7990    0.0000 F   0  0  0  0  0  0  0  0  0  0  0  0
    8.2500    0.2010    0.0000 F   0  0  0  0  0  0  0  0  0  0  0  0
    6.7500   -1.2990    0.0000 C   0  0  0  0  0  0  0  0  0  0  0  0
    6.7500    0.2010    0.0000 F   0  0  0  0  0  0  0  0  0  0  0  0
    6.7500   -2.7990    0.0000 F   0  0  0  0  0  0  0  0  0  0  0  0
    5.2500   -1.2990    0.0000 C   0  0  0  0  0  0  0  0  0  0  0  0
    5.2500   -2.7990    0.0000 F   0  0  0  0  0  0  0  0  0  0  0  0
    5.2500    0.2010    0.0000 F   0  0  0  0  0  0  0  0  0  0  0  0
    3.7500   -1.2990    0.0000 C   0  0  0  0  0  0  0  0  0  0  0  0
    3.0000    0.0000    0.0000 O   0  0  0  0  0  0  0  0  0  0  0  0
    1.5000    0.0000    0.0000 C   0  0  0  0  0  0  0  0  0  0  0  0
    0.7500   -1.2990    0.0000 C   0  0  0  0  0  0  0  0  0  0  0  0
   -0.7500   -1.2990    0.0000 C   0  0  0  0  0  0  0  0  0  0  0  0
   -1.5000    0.0000    0.0000 C   0  0  0  0  0  0  0  0  0  0  0  0
   -0.7500    1.2990    0.0000 C   0  0  0  0  0  0  0  0  0  0  0  0
    0.7500    1.2990    0.0000 C   0  0  0  0  0  0  0  0  0  0  0  0
    1.5000    2.5981    0.0000 Br  0  0  0  0  0  0  0  0  0  0  0  0
  1  2  1  0
  2  3  1  0
  2  4  1  0
  2  5  1  0
  5  6  1  0
  5  7  1  0
  5  8  1  0
  8  9  1  0
  8 10  1  0
  8 11  1  0
 11 12  1  0
 12 13  1  0
 13 14  2  0
 14 15  1  0
 15 16  2  0
 16 17  1  0
 17 18  2  0
 18 19  1  0
 18 13  1  0
M  END
$$$$

     RDKit          2D

 20 20  0  0  0  0  0  0  0  0999 V2000
    7.5000    0.0000    0.0000 F   0  0  0  0  0  0  0  0  0  0  0  0
    6.7500   -1.2990    0.0000 C   0  0  0  0  0  0  0  0  0  0  0  0
    7.5000   -2.5981    0.0000 F   0  0  0  0  0  0  0  0  0  0  0  0
    5.2500   -1.2990    0.0000 C   0  0  0  0  0  0  0  0  0  0  0  0
    5.2500   -2.7990    0.0000 F   0  0  0  0  0  0  0  0  0  0  0  0
    5.2500    0.2010    0.0000 F   0  0  0  0  0  0  0  0  0  0  0  0
    3.7500   -1.2990    0.0000 C   0  0  0  0  0  0  0  0  0  0  0  0
    3.0000    0.0000    0.0000 O   0  0  0  0  0  0  0  0  0  0  0  0
    1.5000    0.0000    0.0000 C   0  0  0  0  0  0  0  0  0  0  0  0
    0.7500   -1.2990    0.0000 C   0  0  0  0  0  0  0  0  0  0  0  0
   -0.7500   -1.2990    0.0000 C   0  0  0  0  0  0  0  0  0  0  0  0
   -1.5000    0.0000    0.0000 C   0  0  0  0  0  0  0  0  0  0  0  0
   -3.0000    0.0000    0.0000 N   0  0  0  0  0  0  0  0  0  0  0  0
   -3.7500    1.2990    0.0000 C   0  0  0  0  0  0  0  0  0  0  0  0
   -5.2500    1.2990    0.0000 C   0  0  0  0  0  0  0  0  0  0  0  0
   -6.7500    1.2990    0.0000 F   0  0  0  0  0  0  0  0  0  0  0  0
   -5.2500    2.7990    0.0000 F   0  0  0  0  0  0  0  0  0  0  0  0
   -5.2500   -0.2010    0.0000 F   0  0  0  0  0  0  0  0  0  0  0  0
   -0.7500    1.2990    0.0000 C   0  0  0  0  0  0  0  0  0  0  0  0
    0.7500    1.2990    0.0000 C   0  0  0  0  0  0  0  0  0  0  0  0
  1  2  1  0
  2  3  1  0
  2  4  1  0
  4  5  1  0
  4  6  1  0
  4  7  1  0
  7  8  1  0
  8  9  1  0
  9 10  2  0
 10 11  1  0
 11 12  2  0
 12 13  1  0
 13 14  1  0
 14 15  1  0
 15 16  1  0
 15 17  1  0
 15 18  1  0
 12 19  1  0
 19 20  2  0
 20  9  1  0
M  END
$$$$

     RDKit          2D

 10  9  0  0  0  0  0  0  0  0999 V2000
    0.0000    0.0000    0.0000 C   0  0  0  0  0  0  0  0  0  0  0  0
    1.2990    0.7500    0.0000 C   0  0  0  0  0  0  0  0  0  0  0  0
    1.2990    2.2500    0.0000 N   0  0  0  0  0  0  0  0  0  0  0  0
    2.5981   -0.0000    0.0000 C   0  0  0  0  0  0  0  0  0  0  0  0
    3.3481    1.2990    0.0000 F   0  0  0  0  0  0  0  0  0  0  0  0
    1.8481   -1.2990    0.0000 F   0  0  0  0  0  0  0  0  0  0  0  0
    3.8971   -0.7500    0.0000 C   0  0  0  0  0  0  0  0  0  0  0  0
    5.1962   -1.5000    0.0000 F   0  0  0  0  0  0  0  0  0  0  0  0
    3.1471   -2.0490    0.0000 F   0  0  0  0  0  0  0  0  0  0  0  0
    4.6471    0.5490    0.0000 F   0  0  0  0  0  0  0  0  0  0  0  0
  1  2  1  0
  2  3  1  0
  2  4  1  0
  4  5  1  0
  4  6  1  0
  4  7  1  0
  7  8  1  0
  7  9  1  0
  7 10  1  0
M  END
$$$$

     RDKit          2D

 12 11  0  0  0  0  0  0  0  0999 V2000
   -1.2990    0.7500    0.0000 F   0  0  0  0  0  0  0  0  0  0  0  0
    0.0000    0.0000    0.0000 C   0  0  0  0  0  0  0  0  0  0  0  0
   -0.0000   -1.5000    0.0000 F   0  0  0  0  0  0  0  0  0  0  0  0
    1.2990    0.7500    0.0000 C   0  0  0  0  0  0  0  0  0  0  0  0
    1.2990    2.2500    0.0000 Cl  0  0  0  0  0  0  0  0  0  0  0  0
    2.5981   -0.0000    0.0000 C   0  0  0  0  0  0  0  0  0  0  0  0
    1.8481   -1.2990    0.0000 F   0  0  0  0  0  0  0  0  0  0  0  0
    3.3481    1.2990    0.0000 Cl  0  0  0  0  0  0  0  0  0  0  0  0
    3.8971   -0.7500    0.0000 C   0  0  0  0  0  0  0  0  0  0  0  0
    5.1962   -1.5000    0.0000 F   0  0  0  0  0  0  0  0  0  0  0  0
    3.1471   -2.0490    0.0000 F   0  0  0  0  0  0  0  0  0  0  0  0
    4.6471    0.5490    0.0000 F   0  0  0  0  0  0  0  0  0  0  0  0
  1  2  1  0
  2  3  1  0
  2  4  2  0
  4  5  1  0
  4  6  1  0
  6  7  1  0
  6  8  1  0
  6  9  1  0
  9 10  1  0
  9 11  1  0
  9 12  1  0
M  END
$$$$

     RDKit          2D

 15 15  0  0  0  0  0  0  0  0999 V2000
    3.0000    0.0000    0.0000 C   0  0  0  0  0  0  0  0  0  0  0  0
    1.5000    0.0000    0.0000 C   0  0  0  0  0  0  0  0  0  0  0  0
    0.7500   -1.2990    0.0000 C   0  0  0  0  0  0  0  0  0  0  0  0
   -0.7500   -1.2990    0.0000 C   0  0  0  0  0  0  0  0  0  0  0  0
   -1.5000    0.0000    0.0000 C   0  0  0  0  0  0  0  0  0  0  0  0
   -3.0000    0.0000    0.0000 C   0  0  0  0  0  0  0  0  0  0  0  0
   -3.0000    1.5000    0.0000 F   0  0  0  0  0  0  0  0  0  0  0  0
   -3.0000   -1.5000    0.0000 F   0  0  0  0  0  0  0  0  0  0  0  0
   -4.5000    0.0000    0.0000 C   0  0  0  0  0  0  0  0  0  0  0  0
   -6.0000    0.0000    0.0000 F   0  0  0  0  0  0  0  0  0  0  0  0
   -4.5000   -1.5000    0.0000 F   0  0  0  0  0  0  0  0  0  0  0  0
   -4.5000    1.5000    0.0000 F   0  0  0  0  0  0  0  0  0  0  0  0
   -0.7500    1.2990    0.0000 C   0  0  0  0  0  0  0  0  0  0  0  0
    0.7500    1.2990    0.0000 C   0  0  0  0  0  0  0  0  0  0  0  0
    1.5000    2.5981    0.0000 N   0  0  0  0  0  0  0  0  0  0  0  0
  1  2  1  0
  2  3  2  0
  3  4  1  0
  4  5  2  0
  5  6  1  0
  6  7  1  0
  6  8  1  0
  6  9  1  0
  9 10  1  0
  9 11  1  0
  9 12  1  0
  5 13  1  0
 13 14  2  0
 14 15  1  0
 14  2  1  0
M  END
$$$$

     RDKit          2D

 22 22  0  0  0  0  0  0  0  0999 V2000
    5.2500   -3.8971    0.0000 F   0  0  0  0  0  0  0  0  0  0  0  0
    4.5000   -2.5981    0.0000 C   0  0  0  0  0  0  0  0  0  0  0  0
    3.2010   -3.3481    0.0000 F   0  0  0  0  0  0  0  0  0  0  0  0
    5.7990   -1.8481    0.0000 F   0  0  0  0  0  0  0  0  0  0  0  0
    3.7500   -1.2990    0.0000 C   0  0  0  0  0  0  0  0  0  0  0  0
    2.4510   -2.0490    0.0000 F   0  0  0  0  0  0  0  0  0  0  0  0
    5.0490   -0.5490    0.0000 F   0  0  0  0  0  0  0  0  0  0  0  0
    3.0000    0.0000    0.0000 O   0  0  0  0  0  0  0  0  0  0  0  0
    1.5000    0.0000    0.0000 C   0  0  0  0  0  0  0  0  0  0  0  0
    0.7500   -1.2990    0.0000 C   0  0  0  0  0  0  0  0  0  0  0  0
   -0.7500   -1.2990    0.0000 C   0  0  0  0  0  0  0  0  0  0  0  0
   -1.5000    0.0000    0.0000 C   0  0  0  0  0  0  0  0  0  0  0  0
   -0.7500    1.2990    0.0000 C   0  0  0  0  0  0  0  0  0  0  0  0
   -1.5000    2.5981    0.0000 O   0  0  0  0  0  0  0  0  0  0  0  0
   -0.7500    3.8971    0.0000 C   0  0  0  0  0  0  0  0  0  0  0  0
    0.5490    3.1471    0.0000 F   0  0  0  0  0  0  0  0  0  0  0  0
   -2.0490    4.6471    0.0000 F   0  0  0  0  0  0  0  0  0  0  0  0
    0.0000    5.1962    0.0000 C   0  0  0  0  0  0  0  0  0  0  0  0
    0.7500    6.4952    0.0000 F   0  0  0  0  0  0  0  0  0  0  0  0
    1.2990    4.4462    0.0000 F   0  0  0  0  0  0  0  0  0  0  0  0
   -1.2990    5.9462    0.0000 F   0  0  0  0  0  0  0  0  0  0  0  0
    0.7500    1.2990    0.0000 C   0  0  0  0  0  0  0  0  0  0  0  0
  1  2  1  0
  2  3  1  0
  2  4  1  0
  2  5  1  0
  5  6  1  0
  5  7  1  0
  5  8  1  0
  8  9  1  0
  9 10  2  0
 10 11  1  0
 11 12  2  0
 12 13  1  0
 13 14  1  0
 14 15  1  0
 15 16  1  0
 15 17  1  0
 15 18  1  0
 18 19  1  0
 18 20  1  0
 18 21  1  0
 13 22  2  0
 22  9  1  0
M  END
$$$$

     RDKit          2D

 19 20  0  0  0  0  0  0  0  0999 V2000
    2.7760    0.0000    0.0000 C   0  0  0  0  0  0  0  0  0  0  0  0
    1.2760    0.0000    0.0000 C   0  0  0  0  0  0  0  0  0  0  0  0
    0.3943    1.2135    0.0000 C   0  0  0  0  0  0  0  0  0  0  0  0
   -1.0323    0.7500    0.0000 C   0  0  0  0  0  0  0  0  0  0  0  0
   -2.2458    1.6317    0.0000 C   0  0  0  0  0  0  0  0  0  0  0  0
   -3.6724    1.1682    0.0000 C   0  0  0  0  0  0  0  0  0  0  0  0
   -4.1359   -0.2584    0.0000 F   0  0  0  0  0  0  0  0  0  0  0  0
   -4.5541    2.3817    0.0000 C   0  0  0  0  0  0  0  0  0  0  0  0
   -5.6688    1.3780    0.0000 F   0  0  0  0  0  0  0  0  0  0  0  0
   -5.6688    3.3854    0.0000 F   0  0  0  0  0  0  0  0  0  0  0  0
   -3.6724    3.5952    0.0000 C   0  0  0  0  0  0  0  0  0  0  0  0
   -4.9714    4.3452    0.0000 F   0  0  0  0  0  0  0  0  0  0  0  0
   -3.0623    4.9655    0.0000 F   0  0  0  0  0  0  0  0  0  0  0  0
   -2.2458    3.1317    0.0000 C   0  0  0  0  0  0  0  0  0  0  0  0
   -1.9339    4.5989    0.0000 F   0  0  0  0  0  0  0  0  0  0  0  0
   -0.7540    2.9749    0.0000 F   0  0  0  0  0  0  0  0  0  0  0  0
   -1.0323   -0.7500    0.0000 C   0  0  0  0  0  0  0  0  0  0  0  0
   -2.2458   -1.6317    0.0000 C   0  0  0  0  0  0  0  0  0  0  0  0
    0.3943   -1.2135    0.0000 S   0  0  0  0  0  0  0  0  0  0  0  0
  1  2  1  0
  2  3  2  0
  3  4  1  0
  4  5  1  0
  5  6  2  0
  6  7  1  0
  6  8  1  0
  8  9  1  0
  8 10  1  0
  8 11  1  0
 11 12  1  0
 11 13  1  0
 11 14  1  0
 14 15  1  0
 14 16  1  0
  4 17  2  0
 17 18  1  0
 17 19  1  0
 19  2  1  0
 14  5  1  0
M  END
$$$$

     RDKit          2D

 14 13  0  0  0  0  0  0  0  0999 V2000
    0.0000    0.0000    0.0000 C   0  0  0  0  0  0  0  0  0  0  0  0
    1.2990    0.7500    0.0000 C   0  0  0  0  0  0  0  0  0  0  0  0
    2.5981   -0.0000    0.0000 C   0  0  0  0  0  0  0  0  0  0  0  0
    3.8971    0.7500    0.0000 O   0  0  0  0  0  0  0  0  0  0  0  0
    5.1962   -0.0000    0.0000 C   0  0  0  0  0  0  0  0  0  0  0  0
    5.1962   -1.5000    0.0000 O   0  0  0  0  0  0  0  0  0  0  0  0
    6.4952    0.7500    0.0000 O   0  0  0  0  0  0  0  0  0  0  0  0
    7.7942   -0.0000    0.0000 C   0  0  0  0  0  0  0  0  0  0  0  0
    9.0933    0.7500    0.0000 C   0  0  0  0  0  0  0  0  0  0  0  0
    9.8433   -0.5490    0.0000 F   0  0  0  0  0  0  0  0  0  0  0  0
    8.3433    2.0490    0.0000 F   0  0  0  0  0  0  0  0  0  0  0  0
   10.3923    1.5000    0.0000 C   0  0  0  0  0  0  0  0  0  0  0  0
   10.3923    3.0000    0.0000 F   0  0  0  0  0  0  0  0  0  0  0  0
   11.6913    0.7500    0.0000 F   0  0  0  0  0  0  0  0  0  0  0  0
  1  2  1  0
  2  3  1  0
  3  4  1  0
  4  5  1  0
  5  6  2  0
  5  7  1  0
  7  8  1  0
  8  9  1  0
  9 10  1  0
  9 11  1  0
  9 12  1  0
 12 13  1  0
 12 14  1  0
M  END
$$$$

     RDKit          2D

 15 15  0  0  0  0  0  0  0  0999 V2000
    7.5000    0.0000    0.0000 F   0  0  0  0  0  0  0  0  0  0  0  0
    6.7500   -1.2990    0.0000 C   0  0  0  0  0  0  0  0  0  0  0  0
    7.5000   -2.5981    0.0000 F   0  0  0  0  0  0  0  0  0  0  0  0
    5.2500   -1.2990    0.0000 C   0  0  0  0  0  0  0  0  0  0  0  0
    5.2500   -2.7990    0.0000 F   0  0  0  0  0  0  0  0  0  0  0  0
    5.2500    0.2010    0.0000 F   0  0  0  0  0  0  0  0  0  0  0  0
    3.7500   -1.2990    0.0000 C   0  0  0  0  0  0  0  0  0  0  0  0
    3.0000    0.0000    0.0000 O   0  0  0  0  0  0  0  0  0  0  0  0
    1.5000    0.0000    0.0000 C   0  0  0  0  0  0  0  0  0  0  0  0
    0.7500   -1.2990    0.0000 C   0  0  0  0  0  0  0  0  0  0  0  0
   -0.7500   -1.2990    0.0000 C   0  0  0  0  0  0  0  0  0  0  0  0
   -1.5000    0.0000    0.0000 C   0  0  0  0  0  0  0  0  0  0  0  0
   -0.7500    1.2990    0.0000 C   0  0  0  0  0  0  0  0  0  0  0  0
   -1.5000    2.5981    0.0000 Br  0  0  0  0  0  0  0  0  0  0  0  0
    0.7500    1.2990    0.0000 C   0  0  0  0  0  0  0  0  0  0  0  0
  1  2  1  0
  2  3  1  0
  2  4  1  0
  4  5  1  0
  4  6  1  0
  4  7  1  0
  7  8  1  0
  8  9  1  0
  9 10  2  0
 10 11  1  0
 11 12  2  0
 12 13  1  0
 13 14  1  0
 13 15  2  0
 15  9  1  0
M  END
$$$$

     RDKit          2D

 34 36  0  0  0  0  0  0  0  0999 V2000
    3.7110   -2.6401    0.0000 O   0  0  0  0  0  0  0  0  0  0  0  0
    3.2475   -1.2135    0.0000 C   0  0  0  0  0  0  0  0  0  0  0  0
    4.1291   -0.0000    0.0000 O   0  0  0  0  0  0  0  0  0  0  0  0
    3.2475    1.2135    0.0000 C   0  0  0  0  0  0  0  0  0  0  0  0
    3.7110    2.6401    0.0000 O   0  0  0  0  0  0  0  0  0  0  0  0
    1.8209    0.7500    0.0000 C   0  0  0  0  0  0  0  0  0  0  0  0
    0.3943    1.2135    0.0000 C   0  0  0  0  0  0  0  0  0  0  0  0
    1.2760    0.0000    0.0000 C   0  0  0  0  0  0  0  0  0  0  0  0
    0.3943   -1.2135    0.0000 C   0  0  0  0  0  0  0  0  0  0  0  0
   -1.0323   -0.7500    0.0000 C   0  0  0  0  0  0  0  0  0  0  0  0
   -1.0323    0.7500    0.0000 C   0  0  0  0  0  0  0  0  0  0  0  0
   -2.2458    1.6317    0.0000 S   0  0  0  0  0  0  0  0  0  0  0  0
   -2.0890    3.1235    0.0000 C   0  0  0  0  0  0  0  0  0  0  0  0
   -3.3025    4.0051    0.0000 C   0  0  0  0  0  0  0  0  0  0  0  0
   -3.1458    5.4969    0.0000 C   0  0  0  0  0  0  0  0  0  0  0  0
   -4.6375    5.6537    0.0000 F   0  0  0  0  0  0  0  0  0  0  0  0
   -1.6540    5.3401    0.0000 F   0  0  0  0  0  0  0  0  0  0  0  0
   -2.9890    6.9887    0.0000 C   0  0  0  0  0  0  0  0  0  0  0  0
   -1.4972    6.8319    0.0000 F   0  0  0  0  0  0  0  0  0  0  0  0
   -4.4807    7.1455    0.0000 F   0  0  0  0  0  0  0  0  0  0  0  0
   -2.8322    8.4805    0.0000 C   0  0  0  0  0  0  0  0  0  0  0  0
   -4.3239    8.6373    0.0000 F   0  0  0  0  0  0  0  0  0  0  0  0
   -1.3404    8.3237    0.0000 F   0  0  0  0  0  0  0  0  0  0  0  0
   -2.6754    9.9723    0.0000 C   0  0  0  0  0  0  0  0  0  0  0  0
   -1.1836    9.8155    0.0000 F   0  0  0  0  0  0  0  0  0  0  0  0
   -4.1672   10.1291    0.0000 F   0  0  0  0  0  0  0  0  0  0  0  0
   -2.5186   11.4641    0.0000 C   0  0  0  0  0  0  0  0  0  0  0  0
   -4.0104   11.6208    0.0000 F   0  0  0  0  0  0  0  0  0  0  0  0
   -1.0268   11.3073    0.0000 F   0  0  0  0  0  0  0  0  0  0  0  0
   -2.3618   12.9558    0.0000 C   0  0  0  0  0  0  0  0  0  0  0  0
   -2.2050   14.4476    0.0000 F   0  0  0  0  0  0  0  0  0  0  0  0
   -0.8700   12.7990    0.0000 F   0  0  0  0  0  0  0  0  0  0  0  0
   -3.8536   13.1126    0.0000 F   0  0  0  0  0  0  0  0  0  0  0  0
    1.8209   -0.7500    0.0000 C   0  0  0  0  0  0  0  0  0  0  0  0
  1  2  2  0
  2  3  1  0
  3  4  1  0
  4  5  2  0
  6  4  1  6
  6  7  1  0
  7  8  1  1
  8  9  1  0
  9 10  1  6
 10 11  1  0
 11 12  1  1
 12 13  1  0
 13 14  1  0
 14 15  1  0
 15 16  1  0
 15 17  1  0
 15 18  1  0
 18 19  1  0
 18 20  1  0
 18 21  1  0
 21 22  1  0
 21 23  1  0
 21 24  1  0
 24 25  1  0
 24 26  1  0
 24 27  1  0
 27 28  1  0
 27 29  1  0
 27 30  1  0
 30 31  1  0
 30 32  1  0
 30 33  1  0
  9 34  1  0
 34  2  1  6
 34  6  1  0
 11  7  1  0
M  END
$$$$

     RDKit          2D

 28 26  0  0  0  0  0  0  0  0999 V2000
    0.0000    0.0000    0.0000 C   0  0  0  0  0  0  0  0  0  0  0  0
    1.2990    0.7500    0.0000 C   0  0  0  0  0  0  0  0  0  0  0  0
    2.5981   -0.0000    0.0000 N   0  0  0  0  0  0  0  0  0  0  0  0
   -0.0000    1.7500    0.0000 O   0  0  0  0  0  0  0  0  0  0  0  0
    0.0000    3.2500    0.0000 C   0  0  0  0  0  0  0  0  0  0  0  0
   -1.2990    4.0000    0.0000 O   0  0  0  0  0  0  0  0  0  0  0  0
    1.2990    4.0000    0.0000 C   0  0  0  0  0  0  0  0  0  0  0  0
    2.0490    2.7010    0.0000 F   0  0  0  0  0  0  0  0  0  0  0  0
    0.5490    5.2990    0.0000 F   0  0  0  0  0  0  0  0  0  0  0  0
    2.5981    4.7500    0.0000 C   0  0  0  0  0  0  0  0  0  0  0  0
    1.8481    6.0490    0.0000 F   0  0  0  0  0  0  0  0  0  0  0  0
    3.3481    3.4510    0.0000 F   0  0  0  0  0  0  0  0  0  0  0  0
    3.8971    5.5000    0.0000 C   0  0  0  0  0  0  0  0  0  0  0  0
    4.6471    4.2010    0.0000 F   0  0  0  0  0  0  0  0  0  0  0  0
    3.1471    6.7990    0.0000 F   0  0  0  0  0  0  0  0  0  0  0  0
    5.1962    6.2500    0.0000 C   0  0  0  0  0  0  0  0  0  0  0  0
    4.4462    7.5490    0.0000 F   0  0  0  0  0  0  0  0  0  0  0  0
    5.9462    4.9510    0.0000 F   0  0  0  0  0  0  0  0  0  0  0  0
    6.4952    7.0000    0.0000 C   0  0  0  0  0  0  0  0  0  0  0  0
    7.2452    5.7010    0.0000 F   0  0  0  0  0  0  0  0  0  0  0  0
    5.7452    8.2990    0.0000 F   0  0  0  0  0  0  0  0  0  0  0  0
    7.7942    7.7500    0.0000 C   0  0  0  0  0  0  0  0  0  0  0  0
    7.0442    9.0490    0.0000 F   0  0  0  0  0  0  0  0  0  0  0  0
    8.5442    6.4510    0.0000 F   0  0  0  0  0  0  0  0  0  0  0  0
    9.0933    8.5000    0.0000 C   0  0  0  0  0  0  0  0  0  0  0  0
   10.3923    9.2500    0.0000 F   0  0  0  0  0  0  0  0  0  0  0  0
    9.8433    7.2010    0.0000 F   0  0  0  0  0  0  0  0  0  0  0  0
    8.3433    9.7990    0.0000 F   0  0  0  0  0  0  0  0  0  0  0  0
  1  2  1  0
  2  3  1  0
  4  5  2  0
  5  6  1  0
  5  7  1  0
  7  8  1  0
  7  9  1  0
  7 10  1  0
 10 11  1  0
 10 12  1  0
 10 13  1  0
 13 14  1  0
 13 15  1  0
 13 16  1  0
 16 17  1  0
 16 18  1  0
 16 19  1  0
 19 20  1  0
 19 21  1  0
 19 22  1  0
 22 23  1  0
 22 24  1  0
 22 25  1  0
 25 26  1  0
 25 27  1  0
 25 28  1  0
M  END
$$$$

     RDKit          2D

 48 47  0  0  0  0  0  0  0  0999 V2000
   -1.2990    0.7500    0.0000 O   0  0  0  0  0  0  0  0  0  0  0  0
    0.0000    0.0000    0.0000 C   0  0  0  0  0  0  0  0  0  0  0  0
    1.2990    0.7500    0.0000 C   0  0  0  0  0  0  0  0  0  0  0  0
    2.5981   -0.0000    0.0000 C   0  0  0  0  0  0  0  0  0  0  0  0
    3.8971    0.7500    0.0000 S   0  0  0  0  0  0  0  0  0  0  0  0
    5.1962   -0.0000    0.0000 C   0  0  0  0  0  0  0  0  0  0  0  0
    6.4952    0.7500    0.0000 C   0  0  0  0  0  0  0  0  0  0  0  0
    7.7942   -0.0000    0.0000 C   0  0  0  0  0  0  0  0  0  0  0  0
    8.5442    1.2990    0.0000 F   0  0  0  0  0  0  0  0  0  0  0  0
    7.0442   -1.2990    0.0000 F   0  0  0  0  0  0  0  0  0  0  0  0
    9.0933   -0.7500    0.0000 C   0  0  0  0  0  0  0  0  0  0  0  0
    8.3433   -2.0490    0.0000 F   0  0  0  0  0  0  0  0  0  0  0  0
    9.8433    0.5490    0.0000 F   0  0  0  0  0  0  0  0  0  0  0  0
   10.3923   -1.5000    0.0000 C   0  0  0  0  0  0  0  0  0  0  0  0
   11.1423   -0.2010    0.0000 F   0  0  0  0  0  0  0  0  0  0  0  0
    9.6423   -2.7990    0.0000 F   0  0  0  0  0  0  0  0  0  0  0  0
   11.6913   -2.2500    0.0000 C   0  0  0  0  0  0  0  0  0  0  0  0
   10.9413   -3.5490    0.0000 F   0  0  0  0  0  0  0  0  0  0  0  0
   12.4413   -0.9510    0.0000 F   0  0  0  0  0  0  0  0  0  0  0  0
   12.9904   -3.0000    0.0000 C   0  0  0  0  0  0  0  0  0  0  0  0
   13.7404   -1.7010    0.0000 F   0  0  0  0  0  0  0  0  0  0  0  0
   12.2404   -4.2990    0.0000 F   0  0  0  0  0  0  0  0  0  0  0  0
   14.2894   -3.7500    0.0000 C   0  0  0  0  0  0  0  0  0  0  0  0
   15.5885   -4.5000    0.0000 F   0  0  0  0  0  0  0  0  0  0  0  0
   13.5394   -5.0490    0.0000 F   0  0  0  0  0  0  0  0  0  0  0  0
   15.0394   -2.4510    0.0000 F   0  0  0  0  0  0  0  0  0  0  0  0
    1.2990    2.2500    0.0000 S   0  0  0  0  0  0  0  0  0  0  0  0
    2.5981    3.0000    0.0000 C   0  0  0  0  0  0  0  0  0  0  0  0
    2.5981    4.5000    0.0000 C   0  0  0  0  0  0  0  0  0  0  0  0
    3.8971    5.2500    0.0000 C   0  0  0  0  0  0  0  0  0  0  0  0
    3.1471    6.5490    0.0000 F   0  0  0  0  0  0  0  0  0  0  0  0
    4.6471    3.9510    0.0000 F   0  0  0  0  0  0  0  0  0  0  0  0
    5.1962    6.0000    0.0000 C   0  0  0  0  0  0  0  0  0  0  0  0
    5.9462    4.7010    0.0000 F   0  0  0  0  0  0  0  0  0  0  0  0
    4.4462    7.2990    0.0000 F   0  0  0  0  0  0  0  0  0  0  0  0
    6.4952    6.7500    0.0000 C   0  0  0  0  0  0  0  0  0  0  0  0
    5.7452    8.0490    0.0000 F   0  0  0  0  0  0  0  0  0  0  0  0
    7.2452    5.4510    0.0000 F   0  0  0  0  0  0  0  0  0  0  0  0
    7.7942    7.5000    0.0000 C   0  0  0  0  0  0  0  0  0  0  0  0
    8.5442    6.2010    0.0000 F   0  0  0  0  0  0  0  0  0  0  0  0
    7.0442    8.7990    0.0000 F   0  0  0  0  0  0  0  0  0  0  0  0
    9.0933    8.2500    0.0000 C   0  0  0  0  0  0  0  0  0  0  0  0
    8.3433    9.5490    0.0000 F   0  0  0  0  0  0  0  0  0  0  0  0
    9.8433    6.9510    0.0000 F   0  0  0  0  0  0  0  0  0  0  0  0
   10.3923    9.0000    0.0000 C   0  0  0  0  0  0  0  0  0  0  0  0
   11.6913    9.7500    0.0000 F   0  0  0  0  0  0  0  0  0  0  0  0
   11.1423    7.7010    0.0000 F   0  0  0  0  0  0  0  0  0  0  0  0
    9.6423   10.2990    0.0000 F   0  0  0  0  0  0  0  0  0  0  0  0
  1  2  1  0
  2  3  1  0
  3  4  1  0
  4  5  1  0
  5  6  1  0
  6  7  1  0
  7  8  1  0
  8  9  1  0
  8 10  1  0
  8 11  1  0
 11 12  1  0
 11 13  1  0
 11 14  1  0
 14 15  1  0
 14 16  1  0
 14 17  1  0
 17 18  1  0
 17 19  1  0
 17 20  1  0
 20 21  1  0
 20 22  1  0
 20 23  1  0
 23 24  1  0
 23 25  1  0
 23 26  1  0
  3 27  1  0
 27 28  1  0
 28 29  1  0
 29 30  1  0
 30 31  1  0
 30 32  1  0
 30 33  1  0
 33 34  1  0
 33 35  1  0
 33 36  1  0
 36 37  1  0
 36 38  1  0
 36 39  1  0
 39 40  1  0
 39 41  1  0
 39 42  1  0
 42 43  1  0
 42 44  1  0
 42 45  1  0
 45 46  1  0
 45 47  1  0
 45 48  1  0
M  END
$$$$

     RDKit          2D

 15 14  0  0  0  0  0  0  0  0999 V2000
    0.0000    0.0000    0.0000 C   0  0  0  0  0  0  0  0  0  0  0  0
    1.2990    0.7500    0.0000 O   0  0  0  0  0  0  0  0  0  0  0  0
    2.5981   -0.0000    0.0000 N   0  0  0  0  0  0  0  0  0  0  0  0
    3.8971    0.7500    0.0000 C   0  0  0  0  0  0  0  0  0  0  0  0
    2.5981   -1.5000    0.0000 C   0  0  0  0  0  0  0  0  0  0  0  0
    1.2990   -2.2500    0.0000 O   0  0  0  0  0  0  0  0  0  0  0  0
    3.8971   -2.2500    0.0000 C   0  0  0  0  0  0  0  0  0  0  0  0
    3.8971   -3.7500    0.0000 C   0  0  0  0  0  0  0  0  0  0  0  0
    5.1962   -4.5000    0.0000 C   0  0  0  0  0  0  0  0  0  0  0  0
    4.4462   -5.7990    0.0000 F   0  0  0  0  0  0  0  0  0  0  0  0
    5.9462   -3.2010    0.0000 F   0  0  0  0  0  0  0  0  0  0  0  0
    6.4952   -5.2500    0.0000 C   0  0  0  0  0  0  0  0  0  0  0  0
    7.7942   -6.0000    0.0000 F   0  0  0  0  0  0  0  0  0  0  0  0
    7.2452   -3.9510    0.0000 F   0  0  0  0  0  0  0  0  0  0  0  0
    5.7452   -6.5490    0.0000 F   0  0  0  0  0  0  0  0  0  0  0  0
  1  2  1  0
  2  3  1  0
  3  4  1  0
  3  5  1  0
  5  6  2  0
  5  7  1  0
  7  8  1  0
  8  9  1  0
  9 10  1  0
  9 11  1  0
  9 12  1  0
 12 13  1  0
 12 14  1  0
 12 15  1  0
M  END
$$$$

     RDKit          2D

 26 25  0  0  0  0  0  0  0  0999 V2000
   -0.0000   -1.5000    0.0000 F   0  0  0  0  0  0  0  0  0  0  0  0
    0.0000    0.0000    0.0000 C   0  0  0  0  0  0  0  0  0  0  0  0
   -1.2990    0.7500    0.0000 O   0  0  0  0  0  0  0  0  0  0  0  0
   -2.5981    0.0000    0.0000 C   0  0  0  0  0  0  0  0  0  0  0  0
   -1.8481   -1.2990    0.0000 F   0  0  0  0  0  0  0  0  0  0  0  0
   -3.3481    1.2990    0.0000 F   0  0  0  0  0  0  0  0  0  0  0  0
   -3.8971   -0.7500    0.0000 C   0  0  0  0  0  0  0  0  0  0  0  0
   -3.1471   -2.0490    0.0000 F   0  0  0  0  0  0  0  0  0  0  0  0
   -4.6471    0.5490    0.0000 F   0  0  0  0  0  0  0  0  0  0  0  0
   -5.1962   -1.5000    0.0000 C   0  0  0  0  0  0  0  0  0  0  0  0
   -6.4952   -2.2500    0.0000 F   0  0  0  0  0  0  0  0  0  0  0  0
   -5.9462   -0.2010    0.0000 F   0  0  0  0  0  0  0  0  0  0  0  0
   -4.4462   -2.7990    0.0000 F   0  0  0  0  0  0  0  0  0  0  0  0
    1.2990    0.7500    0.0000 C   0  0  0  0  0  0  0  0  0  0  0  0
    1.2990    2.2500    0.0000 F   0  0  0  0  0  0  0  0  0  0  0  0
    2.5981   -0.0000    0.0000 O   0  0  0  0  0  0  0  0  0  0  0  0
    3.8971    0.7500    0.0000 C   0  0  0  0  0  0  0  0  0  0  0  0
    3.1471    2.0490    0.0000 F   0  0  0  0  0  0  0  0  0  0  0  0
    4.6471   -0.5490    0.0000 F   0  0  0  0  0  0  0  0  0  0  0  0
    5.1962    1.5000    0.0000 C   0  0  0  0  0  0  0  0  0  0  0  0
    4.4462    2.7990    0.0000 F   0  0  0  0  0  0  0  0  0  0  0  0
    5.9462    0.2010    0.0000 F   0  0  0  0  0  0  0  0  0  0  0  0
    6.4952    2.2500    0.0000 C   0  0  0  0  0  0  0  0  0  0  0  0
    7.7942    3.0000    0.0000 F   0  0  0  0  0  0  0  0  0  0  0  0
    7.2452    0.9510    0.0000 F   0  0  0  0  0  0  0  0  0  0  0  0
    5.7452    3.5490    0.0000 F   0  0  0  0  0  0  0  0  0  0  0  0
  1  2  1  0
  2  3  1  0
  3  4  1  0
  4  5  1  0
  4  6  1  0
  4  7  1  0
  7  8  1  0
  7  9  1  0
  7 10  1  0
 10 11  1  0
 10 12  1  0
 10 13  1  0
  2 14  2  3
 14 15  1  0
 14 16  1  0
 16 17  1  0
 17 18  1  0
 17 19  1  0
 17 20  1  0
 20 21  1  0
 20 22  1  0
 20 23  1  0
 23 24  1  0
 23 25  1  0
 23 26  1  0
M  END
$$$$

     RDKit          2D

 16 16  0  0  0  0  0  0  0  0999 V2000
    3.7500   -1.2990    0.0000 N   0  0  0  0  0  0  0  0  0  0  0  0
    3.0000    0.0000    0.0000 N   0  0  0  0  0  0  0  0  0  0  0  0
    1.5000    0.0000    0.0000 C   0  0  0  0  0  0  0  0  0  0  0  0
    0.7500   -1.2990    0.0000 C   0  0  0  0  0  0  0  0  0  0  0  0
   -0.7500   -1.2990    0.0000 C   0  0  0  0  0  0  0  0  0  0  0  0
   -1.5000    0.0000    0.0000 C   0  0  0  0  0  0  0  0  0  0  0  0
   -3.0000    0.0000    0.0000 O   0  0  0  0  0  0  0  0  0  0  0  0
   -3.7500    1.2990    0.0000 C   0  0  0  0  0  0  0  0  0  0  0  0
   -5.2500    1.2990    0.0000 C   0  0  0  0  0  0  0  0  0  0  0  0
   -5.2500    2.7990    0.0000 F   0  0  0  0  0  0  0  0  0  0  0  0
   -5.2500   -0.2010    0.0000 F   0  0  0  0  0  0  0  0  0  0  0  0
   -6.7500    1.2990    0.0000 C   0  0  0  0  0  0  0  0  0  0  0  0
   -7.5000    0.0000    0.0000 F   0  0  0  0  0  0  0  0  0  0  0  0
   -7.5000    2.5981    0.0000 F   0  0  0  0  0  0  0  0  0  0  0  0
   -0.7500    1.2990    0.0000 C   0  0  0  0  0  0  0  0  0  0  0  0
    0.7500    1.2990    0.0000 C   0  0  0  0  0  0  0  0  0  0  0  0
  1  2  1  0
  2  3  1  0
  3  4  2  0
  4  5  1  0
  5  6  2  0
  6  7  1  0
  7  8  1  0
  8  9  1  0
  9 10  1  0
  9 11  1  0
  9 12  1  0
 12 13  1  0
 12 14  1  0
  6 15  1  0
 15 16  2  0
 16  3  1  0
M  END
$$$$

     RDKit          2D

 14 14  0  0  0  0  0  0  0  0999 V2000
    4.8107   -1.2990    0.0000 C   0  0  0  0  0  0  0  0  0  0  0  0
    3.3107   -1.2990    0.0000 C   0  0  0  0  0  0  0  0  0  0  0  0
    2.5607    0.0000    0.0000 O   0  0  0  0  0  0  0  0  0  0  0  0
    1.0607    0.0000    0.0000 C   0  0  0  0  0  0  0  0  0  0  0  0
   -0.0000   -1.0607    0.0000 C   0  0  0  0  0  0  0  0  0  0  0  0
   -0.0000   -2.5607    0.0000 C   0  0  0  0  0  0  0  0  0  0  0  0
   -1.2990   -3.3107    0.0000 C   0  0  0  0  0  0  0  0  0  0  0  0
    1.2990   -3.3107    0.0000 O   0  0  0  0  0  0  0  0  0  0  0  0
   -1.0607    0.0000    0.0000 C   0  0  0  0  0  0  0  0  0  0  0  0
   -2.1213   -1.0607    0.0000 F   0  0  0  0  0  0  0  0  0  0  0  0
   -2.1213    1.0607    0.0000 F   0  0  0  0  0  0  0  0  0  0  0  0
    0.0000    1.0607    0.0000 C   0  0  0  0  0  0  0  0  0  0  0  0
   -1.0607    2.1213    0.0000 F   0  0  0  0  0  0  0  0  0  0  0  0
    1.0607    2.1213    0.0000 F   0  0  0  0  0  0  0  0  0  0  0  0
  1  2  1  0
  2  3  1  0
  3  4  1  0
  4  5  2  0
  5  6  1  0
  6  7  1  0
  6  8  2  0
  5  9  1  0
  9 10  1  0
  9 11  1  0
  9 12  1  0
 12 13  1  0
 12 14  1  0
 12  4  1  0
M  END
$$$$

     RDKit          2D

 21 21  0  0  0  0  0  0  0  0999 V2000
    6.0000   -2.5981    0.0000 C   0  0  0  0  0  0  0  0  0  0  0  0
    5.2500   -1.2990    0.0000 C   0  0  0  0  0  0  0  0  0  0  0  0
    6.0000    0.0000    0.0000 C   0  0  0  0  0  0  0  0  0  0  0  0
    3.7500   -1.2990    0.0000 N   0  0  0  0  0  0  0  0  0  0  0  0
    3.0000    0.0000    0.0000 C   0  0  0  0  0  0  0  0  0  0  0  0
    3.7500    1.2990    0.0000 C   0  0  0  0  0  0  0  0  0  0  0  0
    3.0000    2.5981    0.0000 C   0  0  0  0  0  0  0  0  0  0  0  0
    1.5000    2.5981    0.0000 O   0  0  0  0  0  0  0  0  0  0  0  0
    3.7500    3.8971    0.0000 C   0  0  0  0  0  0  0  0  0  0  0  0
    2.4510    4.6471    0.0000 F   0  0  0  0  0  0  0  0  0  0  0  0
    5.0490    3.1471    0.0000 F   0  0  0  0  0  0  0  0  0  0  0  0
    4.5000    5.1962    0.0000 C   0  0  0  0  0  0  0  0  0  0  0  0
    5.2500    6.4952    0.0000 F   0  0  0  0  0  0  0  0  0  0  0  0
    5.7990    4.4462    0.0000 F   0  0  0  0  0  0  0  0  0  0  0  0
    3.2010    5.9462    0.0000 F   0  0  0  0  0  0  0  0  0  0  0  0
    1.5000    0.0000    0.0000 C   0  0  0  0  0  0  0  0  0  0  0  0
    0.7500   -1.2990    0.0000 C   0  0  0  0  0  0  0  0  0  0  0  0
   -0.7500   -1.2990    0.0000 C   0  0  0  0  0  0  0  0  0  0  0  0
   -1.5000    0.0000    0.0000 C   0  0  0  0  0  0  0  0  0  0  0  0
   -0.7500    1.2990    0.0000 C   0  0  0  0  0  0  0  0  0  0  0  0
    0.7500    1.2990    0.0000 C   0  0  0  0  0  0  0  0  0  0  0  0
  1  2  1  0
  2  3  1  0
  2  4  1  0
  4  5  1  0
  5  6  2  0
  6  7  1  0
  7  8  2  0
  7  9  1  0
  9 10  1  0
  9 11  1  0
  9 12  1  0
 12 13  1  0
 12 14  1  0
 12 15  1  0
  5 16  1  0
 16 17  2  0
 17 18  1  0
 18 19  2  0
 19 20  1  0
 20 21  2  0
 21 16  1  0
M  END
$$$$

     RDKit          2D

 19 18  0  0  0  0  0  0  0  0999 V2000
    1.2990    2.2500    0.0000 C   0  0  0  0  0  0  0  0  0  0  0  0
    1.2990    0.7500    0.0000 C   0  0  0  0  0  0  0  0  0  0  0  0
    2.5981   -0.0000    0.0000 P   0  0  0  0  0  0  0  0  0  0  0  0
    2.1183   -0.6366    0.0000 O   0  0  0  0  0  0  0  0  0  0  0  0
    3.3481    1.2990    0.0000 O   0  0  0  0  0  0  0  0  0  0  0  0
    2.5981    2.5981    0.0000 C   0  0  0  0  0  0  0  0  0  0  0  0
    3.3481    3.8971    0.0000 C   0  0  0  0  0  0  0  0  0  0  0  0
    2.5981    5.1962    0.0000 C   0  0  0  0  0  0  0  0  0  0  0  0
    4.8481    3.8971    0.0000 C   0  0  0  0  0  0  0  0  0  0  0  0
    3.8971   -0.7500    0.0000 C   0  0  0  0  0  0  0  0  0  0  0  0
    4.6471    0.5490    0.0000 F   0  0  0  0  0  0  0  0  0  0  0  0
    5.1962   -1.5000    0.0000 F   0  0  0  0  0  0  0  0  0  0  0  0
    3.1471   -2.0490    0.0000 C   0  0  0  0  0  0  0  0  0  0  0  0
    2.3318   -1.7030    0.0000 F   0  0  0  0  0  0  0  0  0  0  0  0
    4.4462   -2.7990    0.0000 F   0  0  0  0  0  0  0  0  0  0  0  0
    2.3971   -3.3481    0.0000 C   0  0  0  0  0  0  0  0  0  0  0  0
    1.6471   -4.6471    0.0000 F   0  0  0  0  0  0  0  0  0  0  0  0
    1.0981   -2.5981    0.0000 F   0  0  0  0  0  0  0  0  0  0  0  0
    3.6962   -4.0981    0.0000 F   0  0  0  0  0  0  0  0  0  0  0  0
  1  2  1  0
  2  3  1  0
  3  4  2  0
  3  5  1  0
  5  6  1  0
  6  7  1  0
  7  8  1  0
  7  9  1  0
  3 10  1  0
 10 11  1  0
 10 12  1  0
 10 13  1  0
 13 14  1  0
 13 15  1  0
 13 16  1  0
 16 17  1  0
 16 18  1  0
 16 19  1  0
M  END
$$$$

     RDKit          2D

 38 37  0  0  0  0  0  0  0  0999 V2000
   -2.5981   -1.5000    0.0000 O   0  0  0  0  0  0  0  0  0  0  0  0
   -2.5981    0.0000    0.0000 C   0  0  0  0  0  0  0  0  0  0  0  0
   -1.2990    0.7500    0.0000 N   0  0  0  0  0  0  0  0  0  0  0  0
    0.0000    0.0000    0.0000 C   0  0  0  0  0  0  0  0  0  0  0  0
    1.2990    0.7500    0.0000 C   0  0  0  0  0  0  0  0  0  0  0  0
    2.5981   -0.0000    0.0000 S   0  0  0  0  0  0  0  0  0  0  0  0
    3.8971    0.7500    0.0000 S   0  0  0  0  0  0  0  0  0  0  0  0
    3.1471    2.0490    0.0000 O   0  0  0  0  0  0  0  0  0  0  0  0
    5.1962    1.5000    0.0000 O   0  0  0  0  0  0  0  0  0  0  0  0
    4.6471   -0.5490    0.0000 O   0  0  0  0  0  0  0  0  0  0  0  0
   -3.8971    0.7500    0.0000 O   0  0  0  0  0  0  0  0  0  0  0  0
   -5.1962    0.0000    0.0000 C   0  0  0  0  0  0  0  0  0  0  0  0
   -6.4952    0.7500    0.0000 C   0  0  0  0  0  0  0  0  0  0  0  0
   -7.7942    0.0000    0.0000 C   0  0  0  0  0  0  0  0  0  0  0  0
   -8.5442    1.2990    0.0000 F   0  0  0  0  0  0  0  0  0  0  0  0
   -7.0442   -1.2990    0.0000 F   0  0  0  0  0  0  0  0  0  0  0  0
   -9.0933   -0.7500    0.0000 C   0  0  0  0  0  0  0  0  0  0  0  0
   -8.3433   -2.0490    0.0000 F   0  0  0  0  0  0  0  0  0  0  0  0
   -9.8433    0.5490    0.0000 F   0  0  0  0  0  0  0  0  0  0  0  0
  -10.3923   -1.5000    0.0000 C   0  0  0  0  0  0  0  0  0  0  0  0
  -11.1423   -0.2010    0.0000 F   0  0  0  0  0  0  0  0  0  0  0  0
   -9.6423   -2.7990    0.0000 F   0  0  0  0  0  0  0  0  0  0  0  0
  -11.6913   -2.2500    0.0000 C   0  0  0  0  0  0  0  0  0  0  0  0
  -10.9413   -3.5490    0.0000 F   0  0  0  0  0  0  0  0  0  0  0  0
  -12.4413   -0.9510    0.0000 F   0  0  0  0  0  0  0  0  0  0  0  0
  -12.9904   -3.0000    0.0000 C   0  0  0  0  0  0  0  0  0  0  0  0
  -13.7404   -1.7010    0.0000 F   0  0  0  0  0  0  0  0  0  0  0  0
  -12.2404   -4.2990    0.0000 F   0  0  0  0  0  0  0  0  0  0  0  0
  -14.2894   -3.7500    0.0000 C   0  0  0  0  0  0  0  0  0  0  0  0
  -13.5394   -5.0490    0.0000 F   0  0  0  0  0  0  0  0  0  0  0  0
  -15.0394   -2.4510    0.0000 F   0  0  0  0  0  0  0  0  0  0  0  0
  -15.5885   -4.5000    0.0000 C   0  0  0  0  0  0  0  0  0  0  0  0
  -16.3385   -3.2010    0.0000 F   0  0  0  0  0  0  0  0  0  0  0  0
  -14.8385   -5.7990    0.0000 F   0  0  0  0  0  0  0  0  0  0  0  0
  -16.8875   -5.2500    0.0000 C   0  0  0  0  0  0  0  0  0  0  0  0
  -18.1865   -6.0000    0.0000 F   0  0  0  0  0  0  0  0  0  0  0  0
  -16.1375   -6.5490    0.0000 F   0  0  0  0  0  0  0  0  0  0  0  0
  -17.6375   -3.9510    0.0000 F   0  0  0  0  0  0  0  0  0  0  0  0
  1  2  2  0
  2  3  1  0
  3  4  1  0
  4  5  1  0
  5  6  1  0
  6  7  1  0
  7  8  2  0
  7  9  2  0
  7 10  1  0
  2 11  1  0
 11 12  1  0
 12 13  1  0
 13 14  1  0
 14 15  1  0
 14 16  1  0
 14 17  1  0
 17 18  1  0
 17 19  1  0
 17 20  1  0
 20 21  1  0
 20 22  1  0
 20 23  1  0
 23 24  1  0
 23 25  1  0
 23 26  1  0
 26 27  1  0
 26 28  1  0
 26 29  1  0
 29 30  1  0
 29 31  1  0
 29 32  1  0
 32 33  1  0
 32 34  1  0
 32 35  1  0
 35 36  1  0
 35 37  1  0
 35 38  1  0
M  END
$$$$

     RDKit          2D

 29 28  0  0  0  0  0  0  0  0999 V2000
   -2.7990   -7.4462    0.0000 O   0  0  0  0  0  0  0  0  0  0  0  0
   -4.0981   -6.6962    0.0000 S   0  0  0  0  0  0  0  0  0  0  0  0
   -3.6183   -6.0595    0.0000 O   0  0  0  0  0  0  0  0  0  0  0  0
   -4.8481   -7.9952    0.0000 F   0  0  0  0  0  0  0  0  0  0  0  0
   -5.3971   -5.9462    0.0000 C   0  0  0  0  0  0  0  0  0  0  0  0
   -6.1471   -7.2452    0.0000 F   0  0  0  0  0  0  0  0  0  0  0  0
   -6.6962   -5.1962    0.0000 F   0  0  0  0  0  0  0  0  0  0  0  0
   -4.6471   -4.6471    0.0000 C   0  0  0  0  0  0  0  0  0  0  0  0
   -3.8318   -4.9932    0.0000 F   0  0  0  0  0  0  0  0  0  0  0  0
   -5.9462   -3.8971    0.0000 F   0  0  0  0  0  0  0  0  0  0  0  0
   -3.8971   -3.3481    0.0000 C   0  0  0  0  0  0  0  0  0  0  0  0
   -5.2779   -2.7620    0.0000 F   0  0  0  0  0  0  0  0  0  0  0  0
   -2.5981   -4.0981    0.0000 F   0  0  0  0  0  0  0  0  0  0  0  0
   -3.1471   -2.0490    0.0000 O   0  0  0  0  0  0  0  0  0  0  0  0
   -3.8971   -0.7500    0.0000 C   0  0  0  0  0  0  0  0  0  0  0  0
   -4.6471    0.5490    0.0000 F   0  0  0  0  0  0  0  0  0  0  0  0
   -5.1962   -1.5000    0.0000 C   0  0  0  0  0  0  0  0  0  0  0  0
   -6.4952   -2.2500    0.0000 F   0  0  0  0  0  0  0  0  0  0  0  0
   -5.9462   -0.2010    0.0000 F   0  0  0  0  0  0  0  0  0  0  0  0
   -4.9616   -2.9816    0.0000 F   0  0  0  0  0  0  0  0  0  0  0  0
   -2.5981    0.0000    0.0000 C   0  0  0  0  0  0  0  0  0  0  0  0
   -1.8481   -1.2990    0.0000 F   0  0  0  0  0  0  0  0  0  0  0  0
   -3.3481    1.2990    0.0000 F   0  0  0  0  0  0  0  0  0  0  0  0
   -1.2990    0.7500    0.0000 O   0  0  0  0  0  0  0  0  0  0  0  0
    0.0000    0.0000    0.0000 C   0  0  0  0  0  0  0  0  0  0  0  0
   -0.0000   -1.5000    0.0000 F   0  0  0  0  0  0  0  0  0  0  0  0
    1.2990    0.7500    0.0000 C   0  0  0  0  0  0  0  0  0  0  0  0
    2.5981   -0.0000    0.0000 F   0  0  0  0  0  0  0  0  0  0  0  0
    1.2990    2.2500    0.0000 F   0  0  0  0  0  0  0  0  0  0  0  0
  1  2  2  0
  2  3  2  0
  2  4  1  0
  2  5  1  0
  5  6  1  0
  5  7  1  0
  5  8  1  0
  8  9  1  0
  8 10  1  0
  8 11  1  0
 11 12  1  0
 11 13  1  0
 11 14  1  0
 14 15  1  0
 15 16  1  0
 15 17  1  0
 17 18  1  0
 17 19  1  0
 17 20  1  0
 15 21  1  0
 21 22  1  0
 21 23  1  0
 21 24  1  0
 24 25  1  0
 25 26  1  0
 25 27  2  0
 27 28  1  0
 27 29  1  0
M  END
$$$$

     RDKit          2D

 19 17  0  0  0  0  0  0  0  0999 V2000
    3.6549    0.1038    0.0000 O   0  0  0  0  0  0  0  0  0  0  0  0
    4.4462    0.2010    0.0000 C   0  0  0  0  0  0  0  0  0  0  0  0
    5.1962   -1.0981    0.0000 O   0  0  0  0  0  0  0  0  0  0  0  0
    5.1962    1.5000    0.0000 C   0  0  0  0  0  0  0  0  0  0  0  0
    6.4952    0.7500    0.0000 F   0  0  0  0  0  0  0  0  0  0  0  0
    3.8971    2.2500    0.0000 O   0  0  0  0  0  0  0  0  0  0  0  0
    2.5981    1.5000    0.0000 C   0  0  0  0  0  0  0  0  0  0  0  0
    1.8481    2.7990    0.0000 F   0  0  0  0  0  0  0  0  0  0  0  0
    2.9095    0.7662    0.0000 F   0  0  0  0  0  0  0  0  0  0  0  0
    1.2990    0.7500    0.0000 C   0  0  0  0  0  0  0  0  0  0  0  0
    0.5490    2.0490    0.0000 F   0  0  0  0  0  0  0  0  0  0  0  0
    2.0490   -0.5490    0.0000 F   0  0  0  0  0  0  0  0  0  0  0  0
    0.0000   -0.0000    0.0000 C   0  0  0  0  0  0  0  0  0  0  0  0
   -1.2990    0.7500    0.0000 I   0  0  0  0  0  0  0  0  0  0  0  0
    5.9462    2.7990    0.0000 C   0  0  0  0  0  0  0  0  0  0  0  0
    6.6962    4.0981    0.0000 F   0  0  0  0  0  0  0  0  0  0  0  0
    7.2452    2.0490    0.0000 F   0  0  0  0  0  0  0  0  0  0  0  0
    4.6471    3.5490    0.0000 F   0  0  0  0  0  0  0  0  0  0  0  0
    0.0000    5.0981    0.0000 Na  0  0  0  0  0 15  0  0  0  0  0  0
  1  2  2  0
  2  3  1  0
  2  4  1  0
  4  5  1  0
  4  6  1  0
  6  7  1  0
  7  8  1  0
  7  9  1  0
  7 10  1  0
 10 11  1  0
 10 12  1  0
 10 13  1  0
 13 14  1  0
  4 15  1  0
 15 16  1  0
 15 17  1  0
 15 18  1  0
M  CHG  2   3  -1  19   1
M  END
$$$$

     RDKit          2D

 38 37  0  0  0  0  0  0  0  0999 V2000
   -1.5000    0.0000    0.0000 F   0  0  0  0  0  0  0  0  0  0  0  0
    0.0000    0.0000    0.0000 C   0  0  0  0  0  0  0  0  0  0  0  0
    0.0000    1.5000    0.0000 F   0  0  0  0  0  0  0  0  0  0  0  0
   -0.0000   -1.5000    0.0000 F   0  0  0  0  0  0  0  0  0  0  0  0
    1.5000    0.0000    0.0000 C   0  0  0  0  0  0  0  0  0  0  0  0
    1.5000   -1.5000    0.0000 F   0  0  0  0  0  0  0  0  0  0  0  0
    1.5000    1.5000    0.0000 F   0  0  0  0  0  0  0  0  0  0  0  0
    3.0000    0.0000    0.0000 O   0  0  0  0  0  0  0  0  0  0  0  0
    3.7500    1.2990    0.0000 C   0  0  0  0  0  0  0  0  0  0  0  0
    2.4510    2.0490    0.0000 F   0  0  0  0  0  0  0  0  0  0  0  0
    5.0490    0.5490    0.0000 F   0  0  0  0  0  0  0  0  0  0  0  0
    4.5000    2.5981    0.0000 C   0  0  0  0  0  0  0  0  0  0  0  0
    5.7990    1.8481    0.0000 F   0  0  0  0  0  0  0  0  0  0  0  0
    3.2010    3.3481    0.0000 F   0  0  0  0  0  0  0  0  0  0  0  0
    5.2500    3.8971    0.0000 C   0  0  0  0  0  0  0  0  0  0  0  0
    6.5490    3.1471    0.0000 F   0  0  0  0  0  0  0  0  0  0  0  0
    3.9510    4.6471    0.0000 F   0  0  0  0  0  0  0  0  0  0  0  0
    6.0000    5.1962    0.0000 O   0  0  0  0  0  0  0  0  0  0  0  0
    5.2500    6.4952    0.0000 C   0  0  0  0  0  0  0  0  0  0  0  0
    3.9510    5.7452    0.0000 F   0  0  0  0  0  0  0  0  0  0  0  0
    6.5490    7.2452    0.0000 F   0  0  0  0  0  0  0  0  0  0  0  0
    4.5000    7.7942    0.0000 C   0  0  0  0  0  0  0  0  0  0  0  0
    3.2010    7.0442    0.0000 F   0  0  0  0  0  0  0  0  0  0  0  0
    5.7990    8.5442    0.0000 F   0  0  0  0  0  0  0  0  0  0  0  0
    3.7500    9.0933    0.0000 C   0  0  0  0  0  0  0  0  0  0  0  0
    5.0490    9.8433    0.0000 F   0  0  0  0  0  0  0  0  0  0  0  0
    2.4510    8.3433    0.0000 F   0  0  0  0  0  0  0  0  0  0  0  0
    3.0000   10.3923    0.0000 O   0  0  0  0  0  0  0  0  0  0  0  0
    1.5000   10.3923    0.0000 C   0  0  0  0  0  0  0  0  0  0  0  0
    1.5000    8.8923    0.0000 F   0  0  0  0  0  0  0  0  0  0  0  0
    1.5000   11.8923    0.0000 F   0  0  0  0  0  0  0  0  0  0  0  0
    0.0000   10.3923    0.0000 C   0  0  0  0  0  0  0  0  0  0  0  0
    0.0000    8.8923    0.0000 F   0  0  0  0  0  0  0  0  0  0  0  0
    0.0000   11.8923    0.0000 F   0  0  0  0  0  0  0  0  0  0  0  0
   -1.5000   10.3923    0.0000 C   0  0  0  0  0  0  0  0  0  0  0  0
   -3.0000   10.3923    0.0000 F   0  0  0  0  0  0  0  0  0  0  0  0
   -1.5000   11.8923    0.0000 F   0  0  0  0  0  0  0  0  0  0  0  0
   -1.5000    8.8923    0.0000 F   0  0  0  0  0  0  0  0  0  0  0  0
  1  2  1  0
  2  3  1  0
  2  4  1  0
  2  5  1  0
  5  6  1  0
  5  7  1  0
  5  8  1  0
  8  9  1  0
  9 10  1  0
  9 11  1  0
  9 12  1  0
 12 13  1  0
 12 14  1  0
 12 15  1  0
 15 16  1  0
 15 17  1  0
 15 18  1  0
 18 19  1  0
 19 20  1  0
 19 21  1  0
 19 22  1  0
 22 23  1  0
 22 24  1  0
 22 25  1  0
 25 26  1  0
 25 27  1  0
 25 28  1  0
 28 29  1  0
 29 30  1  0
 29 31  1  0
 29 32  1  0
 32 33  1  0
 32 34  1  0
 32 35  1  0
 35 36  1  0
 35 37  1  0
 35 38  1  0
M  END
$$$$

     RDKit          2D

 23 22  0  0  0  0  0  0  0  0999 V2000
   -3.3481    1.2990    0.0000 O   0  0  0  0  0  0  0  0  0  0  0  0
   -2.5981    0.0000    0.0000 P   0  0  0  0  0  0  0  0  0  0  0  0
   -1.8481   -1.2990    0.0000 O   0  0  0  0  0  0  0  0  0  0  0  0
   -3.8971   -0.7500    0.0000 O   0  0  0  0  0  0  0  0  0  0  0  0
   -1.2990    0.7500    0.0000 O   0  0  0  0  0  0  0  0  0  0  0  0
    0.0000    0.0000    0.0000 C   0  0  0  0  0  0  0  0  0  0  0  0
    1.2990    0.7500    0.0000 C   0  0  0  0  0  0  0  0  0  0  0  0
    0.5490    2.0490    0.0000 F   0  0  0  0  0  0  0  0  0  0  0  0
    2.0490   -0.5490    0.0000 O   0  0  0  0  0  0  0  0  0  0  0  0
    1.2990   -1.8481    0.0000 C   0  0  0  0  0  0  0  0  0  0  0  0
    0.0000   -1.0981    0.0000 F   0  0  0  0  0  0  0  0  0  0  0  0
    2.5981   -2.5981    0.0000 F   0  0  0  0  0  0  0  0  0  0  0  0
    0.5490   -3.1471    0.0000 C   0  0  0  0  0  0  0  0  0  0  0  0
    1.8481   -3.8971    0.0000 F   0  0  0  0  0  0  0  0  0  0  0  0
   -0.7500   -2.3971    0.0000 F   0  0  0  0  0  0  0  0  0  0  0  0
   -0.2010   -4.4462    0.0000 C   0  0  0  0  0  0  0  0  0  0  0  0
   -0.9510   -5.7452    0.0000 F   0  0  0  0  0  0  0  0  0  0  0  0
   -1.5000   -3.6962    0.0000 F   0  0  0  0  0  0  0  0  0  0  0  0
    1.0981   -5.1962    0.0000 F   0  0  0  0  0  0  0  0  0  0  0  0
    2.5981    1.5000    0.0000 C   0  0  0  0  0  0  0  0  0  0  0  0
    3.8971    2.2500    0.0000 F   0  0  0  0  0  0  0  0  0  0  0  0
    3.3481    0.2010    0.0000 F   0  0  0  0  0  0  0  0  0  0  0  0
    1.8481    2.7990    0.0000 F   0  0  0  0  0  0  0  0  0  0  0  0
  1  2  2  0
  2  3  1  0
  2  4  1  0
  2  5  1  0
  5  6  1  0
  6  7  1  0
  7  8  1  0
  7  9  1  0
  9 10  1  0
 10 11  1  0
 10 12  1  0
 10 13  1  0
 13 14  1  0
 13 15  1  0
 13 16  1  0
 16 17  1  0
 16 18  1  0
 16 19  1  0
  7 20  1  0
 20 21  1  0
 20 22  1  0
 20 23  1  0
M  END
$$$$

     RDKit          2D

 67 66  0  0  0  0  0  0  0  0999 V2000
    0.0000    0.0000    0.0000 C   0  0  0  0  0  0  0  0  0  0  0  0
    1.2990    0.7500    0.0000 C   0  0  0  0  0  0  0  0  0  0  0  0
    2.5981   -0.0000    0.0000 O   0  0  0  0  0  0  0  0  0  0  0  0
    3.8971    0.7500    0.0000 P   0  0  0  0  0  0  0  0  0  0  0  0
    4.6471   -0.5490    0.0000 O   0  0  0  0  0  0  0  0  0  0  0  0
    3.1471    2.0490    0.0000 C   0  0  0  0  0  0  0  0  0  0  0  0
    3.8971    3.3481    0.0000 C   0  0  0  0  0  0  0  0  0  0  0  0
    3.1471    4.6471    0.0000 C   0  0  0  0  0  0  0  0  0  0  0  0
    1.8481    3.8971    0.0000 F   0  0  0  0  0  0  0  0  0  0  0  0
    4.4462    5.3971    0.0000 O   0  0  0  0  0  0  0  0  0  0  0  0
    4.4462    6.8971    0.0000 C   0  0  0  0  0  0  0  0  0  0  0  0
    2.9573    7.0800    0.0000 F   0  0  0  0  0  0  0  0  0  0  0  0
    5.9462    6.8971    0.0000 F   0  0  0  0  0  0  0  0  0  0  0  0
    4.4462    8.3971    0.0000 C   0  0  0  0  0  0  0  0  0  0  0  0
    2.9462    8.3971    0.0000 F   0  0  0  0  0  0  0  0  0  0  0  0
    5.9462    8.3971    0.0000 O   0  0  0  0  0  0  0  0  0  0  0  0
    6.6962    9.6962    0.0000 C   0  0  0  0  0  0  0  0  0  0  0  0
    5.4982   10.5989    0.0000 F   0  0  0  0  0  0  0  0  0  0  0  0
    7.9952    8.9462    0.0000 F   0  0  0  0  0  0  0  0  0  0  0  0
    7.4462   10.9952    0.0000 C   0  0  0  0  0  0  0  0  0  0  0  0
    6.1471   11.7452    0.0000 F   0  0  0  0  0  0  0  0  0  0  0  0
    8.7452   10.2452    0.0000 O   0  0  0  0  0  0  0  0  0  0  0  0
   10.0442   10.9952    0.0000 C   0  0  0  0  0  0  0  0  0  0  0  0
    9.4582   12.3760    0.0000 F   0  0  0  0  0  0  0  0  0  0  0  0
   10.7942    9.6962    0.0000 F   0  0  0  0  0  0  0  0  0  0  0  0
   11.3433   11.7452    0.0000 C   0  0  0  0  0  0  0  0  0  0  0  0
   10.5933   13.0442    0.0000 F   0  0  0  0  0  0  0  0  0  0  0  0
   12.0933   10.4462    0.0000 O   0  0  0  0  0  0  0  0  0  0  0  0
   13.5933   10.4462    0.0000 C   0  0  0  0  0  0  0  0  0  0  0  0
   13.7761   11.9350    0.0000 F   0  0  0  0  0  0  0  0  0  0  0  0
   13.5933    8.9462    0.0000 F   0  0  0  0  0  0  0  0  0  0  0  0
   15.0933   10.4462    0.0000 C   0  0  0  0  0  0  0  0  0  0  0  0
   15.0933   11.9462    0.0000 F   0  0  0  0  0  0  0  0  0  0  0  0
   15.0933    8.9462    0.0000 O   0  0  0  0  0  0  0  0  0  0  0  0
   16.3923    8.1962    0.0000 C   0  0  0  0  0  0  0  0  0  0  0  0
   16.8721    8.8328    0.0000 F   0  0  0  0  0  0  0  0  0  0  0  0
   15.6423    6.8971    0.0000 F   0  0  0  0  0  0  0  0  0  0  0  0
   17.6913    7.4462    0.0000 C   0  0  0  0  0  0  0  0  0  0  0  0
   16.9413    6.1471    0.0000 F   0  0  0  0  0  0  0  0  0  0  0  0
   18.4413    8.7452    0.0000 F   0  0  0  0  0  0  0  0  0  0  0  0
   18.9904    6.6962    0.0000 C   0  0  0  0  0  0  0  0  0  0  0  0
   20.2894    5.9462    0.0000 F   0  0  0  0  0  0  0  0  0  0  0  0
   19.7404    7.9952    0.0000 F   0  0  0  0  0  0  0  0  0  0  0  0
   18.2404    5.3971    0.0000 F   0  0  0  0  0  0  0  0  0  0  0  0
   16.5933   10.4462    0.0000 C   0  0  0  0  0  0  0  0  0  0  0  0
   18.0933   10.4462    0.0000 F   0  0  0  0  0  0  0  0  0  0  0  0
   16.8790    9.7020    0.0000 F   0  0  0  0  0  0  0  0  0  0  0  0
   16.5933   11.9462    0.0000 F   0  0  0  0  0  0  0  0  0  0  0  0
   12.6423   12.4952    0.0000 C   0  0  0  0  0  0  0  0  0  0  0  0
   13.9413   13.2452    0.0000 F   0  0  0  0  0  0  0  0  0  0  0  0
   11.8923   13.7942    0.0000 F   0  0  0  0  0  0  0  0  0  0  0  0
   13.8081   11.5513    0.0000 F   0  0  0  0  0  0  0  0  0  0  0  0
    8.1962   12.2942    0.0000 C   0  0  0  0  0  0  0  0  0  0  0  0
    8.9462   13.5933    0.0000 F   0  0  0  0  0  0  0  0  0  0  0  0
    6.8971   13.0442    0.0000 F   0  0  0  0  0  0  0  0  0  0  0  0
    9.6777   12.0597    0.0000 F   0  0  0  0  0  0  0  0  0  0  0  0
    4.4462    9.8971    0.0000 C   0  0  0  0  0  0  0  0  0  0  0  0
    4.4462   11.3971    0.0000 F   0  0  0  0  0  0  0  0  0  0  0  0
    2.9462    9.8971    0.0000 F   0  0  0  0  0  0  0  0  0  0  0  0
    5.8465   10.4348    0.0000 F   0  0  0  0  0  0  0  0  0  0  0  0
    2.3971    5.9462    0.0000 C   0  0  0  0  0  0  0  0  0  0  0  0
    1.6471    7.2452    0.0000 F   0  0  0  0  0  0  0  0  0  0  0  0
    1.0981    5.1962    0.0000 F   0  0  0  0  0  0  0  0  0  0  0  0
    3.3410    7.1119    0.0000 F   0  0  0  0  0  0  0  0  0  0  0  0
    5.1962    1.5000    0.0000 O   0  0  0  0  0  0  0  0  0  0  0  0
    5.1962    3.0000    0.0000 C   0  0  0  0  0  0  0  0  0  0  0  0
    6.4952    3.7500    0.0000 C   0  0  0  0  0  0  0  0  0  0  0  0
  1  2  1  0
  2  3  1  0
  3  4  1  0
  4  5  2  0
  4  6  1  0
  6  7  1  0
  7  8  1  0
  8  9  1  0
  8 10  1  0
 10 11  1  0
 11 12  1  0
 11 13  1  0
 11 14  1  0
 14 15  1  0
 14 16  1  0
 16 17  1  0
 17 18  1  0
 17 19  1  0
 17 20  1  0
 20 21  1  0
 20 22  1  0
 22 23  1  0
 23 24  1  0
 23 25  1  0
 23 26  1  0
 26 27  1  0
 26 28  1  0
 28 29  1  0
 29 30  1  0
 29 31  1  0
 29 32  1  0
 32 33  1  0
 32 34  1  0
 34 35  1  0
 35 36  1  0
 35 37  1  0
 35 38  1  0
 38 39  1  0
 38 40  1  0
 38 41  1  0
 41 42  1  0
 41 43  1  0
 41 44  1  0
 32 45  1  0
 45 46  1  0
 45 47  1  0
 45 48  1  0
 26 49  1  0
 49 50  1  0
 49 51  1  0
 49 52  1  0
 20 53  1  0
 53 54  1  0
 53 55  1  0
 53 56  1  0
 14 57  1  0
 57 58  1  0
 57 59  1  0
 57 60  1  0
  8 61  1  0
 61 62  1  0
 61 63  1  0
 61 64  1  0
  4 65  1  0
 65 66  1  0
 66 67  1  0
M  END
$$$$

     RDKit          2D

 36 35  0  0  0  0  0  0  0  0999 V2000
   -1.5000    0.0000    0.0000 F   0  0  0  0  0  0  0  0  0  0  0  0
    0.0000    0.0000    0.0000 C   0  0  0  0  0  0  0  0  0  0  0  0
    0.0000    1.5000    0.0000 F   0  0  0  0  0  0  0  0  0  0  0  0
    0.0000   -1.5000    0.0000 F   0  0  0  0  0  0  0  0  0  0  0  0
    1.5000   -0.0000    0.0000 C   0  0  0  0  0  0  0  0  0  0  0  0
    1.5000    1.5000    0.0000 F   0  0  0  0  0  0  0  0  0  0  0  0
    1.5000   -1.5000    0.0000 F   0  0  0  0  0  0  0  0  0  0  0  0
    3.0000    0.0000    0.0000 C   0  0  0  0  0  0  0  0  0  0  0  0
    3.0000   -1.5000    0.0000 F   0  0  0  0  0  0  0  0  0  0  0  0
    3.0000    1.5000    0.0000 F   0  0  0  0  0  0  0  0  0  0  0  0
    4.5000    0.0000    0.0000 C   0  0  0  0  0  0  0  0  0  0  0  0
    4.5000   -1.5000    0.0000 F   0  0  0  0  0  0  0  0  0  0  0  0
    4.5000    1.5000    0.0000 F   0  0  0  0  0  0  0  0  0  0  0  0
    6.0000    0.0000    0.0000 C   0  0  0  0  0  0  0  0  0  0  0  0
    6.0000    1.5000    0.0000 F   0  0  0  0  0  0  0  0  0  0  0  0
    5.9028   -0.7912    0.0000 F   0  0  0  0  0  0  0  0  0  0  0  0
    7.5000    0.0000    0.0000 O   0  0  0  0  0  0  0  0  0  0  0  0
    8.2500   -1.2990    0.0000 C   0  0  0  0  0  0  0  0  0  0  0  0
    6.9510   -2.0490    0.0000 C   0  0  0  0  0  0  0  0  0  0  0  0
    5.6519   -2.7990    0.0000 F   0  0  0  0  0  0  0  0  0  0  0  0
    7.5370   -3.4298    0.0000 F   0  0  0  0  0  0  0  0  0  0  0  0
    6.3314   -1.5474    0.0000 F   0  0  0  0  0  0  0  0  0  0  0  0
    9.0000   -2.5981    0.0000 C   0  0  0  0  0  0  0  0  0  0  0  0
    9.7500   -3.8971    0.0000 F   0  0  0  0  0  0  0  0  0  0  0  0
    7.8021   -3.5008    0.0000 F   0  0  0  0  0  0  0  0  0  0  0  0
   10.3808   -2.0120    0.0000 F   0  0  0  0  0  0  0  0  0  0  0  0
    9.5490   -0.5490    0.0000 C   0  0  0  0  0  0  0  0  0  0  0  0
   10.4518   -1.7470    0.0000 F   0  0  0  0  0  0  0  0  0  0  0  0
    8.7990    0.7500    0.0000 F   0  0  0  0  0  0  0  0  0  0  0  0
   10.8481    0.2010    0.0000 C   0  0  0  0  0  0  0  0  0  0  0  0
   10.0981    1.5000    0.0000 F   0  0  0  0  0  0  0  0  0  0  0  0
   11.5981   -1.0981    0.0000 F   0  0  0  0  0  0  0  0  0  0  0  0
   12.1471    0.9510    0.0000 C   0  0  0  0  0  0  0  0  0  0  0  0
   13.4462    1.7010    0.0000 F   0  0  0  0  0  0  0  0  0  0  0  0
   12.8971   -0.3481    0.0000 F   0  0  0  0  0  0  0  0  0  0  0  0
   11.3971    2.2500    0.0000 F   0  0  0  0  0  0  0  0  0  0  0  0
  1  2  1  0
  2  3  1  0
  2  4  1  0
  2  5  1  0
  5  6  1  0
  5  7  1  0
  5  8  1  0
  8  9  1  0
  8 10  1  0
  8 11  1  0
 11 12  1  0
 11 13  1  0
 11 14  1  0
 14 15  1  0
 14 16  1  0
 14 17  1  0
 17 18  1  0
 18 19  1  0
 19 20  1  0
 19 21  1  0
 19 22  1  0
 18 23  1  0
 23 24  1  0
 23 25  1  0
 23 26  1  0
 18 27  1  0
 27 28  1  0
 27 29  1  0
 27 30  1  0
 30 31  1  0
 30 32  1  0
 30 33  1  0
 33 34  1  0
 33 35  1  0
 33 36  1  0
M  END
$$$$

     RDKit          2D

 25 24  0  0  0  0  0  0  0  0999 V2000
    1.4819    2.2388    0.0000 O   0  0  0  0  0  0  0  0  0  0  0  0
    1.2990    0.7500    0.0000 C   0  0  0  0  0  0  0  0  0  0  0  0
    2.5981   -0.0000    0.0000 O   0  0  0  0  0  0  0  0  0  0  0  0
    0.0000   -0.0000    0.0000 C   0  0  0  0  0  0  0  0  0  0  0  0
   -1.2990    0.7500    0.0000 N   0  0  0  0  0  0  0  0  0  0  0  0
   -2.5981   -0.0000    0.0000 C   0  0  0  0  0  0  0  0  0  0  0  0
   -3.8971    0.7500    0.0000 C   0  0  0  0  0  0  0  0  0  0  0  0
   -3.8971    2.2500    0.0000 O   0  0  0  0  0  0  0  0  0  0  0  0
   -5.1962   -0.0000    0.0000 O   0  0  0  0  0  0  0  0  0  0  0  0
   -1.2990    2.2500    0.0000 S   0  0  0  0  0  0  0  0  0  0  0  0
   -0.5078    2.1528    0.0000 O   0  0  0  0  0  0  0  0  0  0  0  0
   -2.7990    2.2500    0.0000 O   0  0  0  0  0  0  0  0  0  0  0  0
   -1.2990    3.7500    0.0000 C   0  0  0  0  0  0  0  0  0  0  0  0
   -2.7990    3.7500    0.0000 F   0  0  0  0  0  0  0  0  0  0  0  0
   -1.2990    5.2500    0.0000 F   0  0  0  0  0  0  0  0  0  0  0  0
    0.2010    3.7500    0.0000 C   0  0  0  0  0  0  0  0  0  0  0  0
    0.3089    2.8709    0.0000 F   0  0  0  0  0  0  0  0  0  0  0  0
    0.2010    5.2500    0.0000 F   0  0  0  0  0  0  0  0  0  0  0  0
    1.7010    3.7500    0.0000 C   0  0  0  0  0  0  0  0  0  0  0  0
    1.7010    5.2500    0.0000 F   0  0  0  0  0  0  0  0  0  0  0  0
    1.8838    2.2612    0.0000 F   0  0  0  0  0  0  0  0  0  0  0  0
    3.2010    3.7500    0.0000 C   0  0  0  0  0  0  0  0  0  0  0  0
    4.7010    3.7500    0.0000 F   0  0  0  0  0  0  0  0  0  0  0  0
    3.2010    5.2500    0.0000 F   0  0  0  0  0  0  0  0  0  0  0  0
    3.2010    2.2500    0.0000 F   0  0  0  0  0  0  0  0  0  0  0  0
  1  2  2  0
  2  3  1  0
  2  4  1  0
  4  5  1  0
  5  6  1  0
  6  7  1  0
  7  8  2  0
  7  9  1  0
  5 10  1  0
 10 11  2  0
 10 12  2  0
 10 13  1  0
 13 14  1  0
 13 15  1  0
 13 16  1  0
 16 17  1  0
 16 18  1  0
 16 19  1  0
 19 20  1  0
 19 21  1  0
 19 22  1  0
 22 23  1  0
 22 24  1  0
 22 25  1  0
M  END
$$$$

     RDKit          2D

 37 36  0  0  0  0  0  0  0  0999 V2000
    7.0981    4.0981    0.0000 C   0  0  0  0  0  0  0  0  0  0  0  0
    5.7990    3.3481    0.0000 N   0  0  0  0  0  0  0  0  0  0  0  0
    4.5000    2.5981    0.0000 C   0  0  0  0  0  0  0  0  0  0  0  0
    6.5490    2.0490    0.0000 C   0  0  0  0  0  0  0  0  0  0  0  0
    5.7990    0.7500    0.0000 C   0  0  0  0  0  0  0  0  0  0  0  0
    6.5490   -0.5490    0.0000 C   0  0  0  0  0  0  0  0  0  0  0  0
    5.7990   -1.8481    0.0000 N   0  0  0  0  0  0  0  0  0  0  0  0
    6.5490   -3.1471    0.0000 S   0  0  0  0  0  0  0  0  0  0  0  0
    7.8481   -2.3971    0.0000 O   0  0  0  0  0  0  0  0  0  0  0  0
    5.8152   -3.4586    0.0000 O   0  0  0  0  0  0  0  0  0  0  0  0
    7.2990   -4.4462    0.0000 C   0  0  0  0  0  0  0  0  0  0  0  0
    8.5981   -3.6962    0.0000 F   0  0  0  0  0  0  0  0  0  0  0  0
    8.0490   -5.7452    0.0000 F   0  0  0  0  0  0  0  0  0  0  0  0
    6.0000   -5.1962    0.0000 C   0  0  0  0  0  0  0  0  0  0  0  0
    5.4669   -4.4888    0.0000 F   0  0  0  0  0  0  0  0  0  0  0  0
    6.7500   -6.4952    0.0000 F   0  0  0  0  0  0  0  0  0  0  0  0
    4.7010   -5.9462    0.0000 C   0  0  0  0  0  0  0  0  0  0  0  0
    5.4510   -7.2452    0.0000 F   0  0  0  0  0  0  0  0  0  0  0  0
    3.9510   -4.6471    0.0000 F   0  0  0  0  0  0  0  0  0  0  0  0
    3.4019   -6.6962    0.0000 C   0  0  0  0  0  0  0  0  0  0  0  0
    4.1519   -7.9952    0.0000 F   0  0  0  0  0  0  0  0  0  0  0  0
    2.6519   -5.3971    0.0000 F   0  0  0  0  0  0  0  0  0  0  0  0
    2.1029   -7.4462    0.0000 C   0  0  0  0  0  0  0  0  0  0  0  0
    1.3529   -6.1471    0.0000 F   0  0  0  0  0  0  0  0  0  0  0  0
    2.8529   -8.7452    0.0000 F   0  0  0  0  0  0  0  0  0  0  0  0
    0.8038   -8.1962    0.0000 C   0  0  0  0  0  0  0  0  0  0  0  0
   -0.4952   -8.9462    0.0000 F   0  0  0  0  0  0  0  0  0  0  0  0
    1.5538   -9.4952    0.0000 F   0  0  0  0  0  0  0  0  0  0  0  0
    0.0538   -6.8971    0.0000 F   0  0  0  0  0  0  0  0  0  0  0  0
    5.0490    4.6471    0.0000 C   0  0  0  0  0  0  0  0  0  0  0  0
    3.5490    4.6471    0.0000 C   0  0  0  0  0  0  0  0  0  0  0  0
    2.7990    3.3481    0.0000 O   0  0  0  0  0  0  0  0  0  0  0  0
    2.7990    5.9462    0.0000 C   0  0  0  0  0  0  0  0  0  0  0  0
    1.2990    5.9462    0.0000 S   0  0  0  0  0  0  0  0  0  0  0  0
    1.2990    7.4462    0.0000 O   0  0  0  0  0  0  0  0  0  0  0  0
    1.2990    4.4462    0.0000 O   0  0  0  0  0  0  0  0  0  0  0  0
   -0.2010    5.9462    0.0000 O   0  0  0  0  0  0  0  0  0  0  0  0
  1  2  1  0
  2  3  1  0
  2  4  1  0
  4  5  1  0
  5  6  1  0
  6  7  1  0
  7  8  1  0
  8  9  2  0
  8 10  2  0
  8 11  1  0
 11 12  1  0
 11 13  1  0
 11 14  1  0
 14 15  1  0
 14 16  1  0
 14 17  1  0
 17 18  1  0
 17 19  1  0
 17 20  1  0
 20 21  1  0
 20 22  1  0
 20 23  1  0
 23 24  1  0
 23 25  1  0
 23 26  1  0
 26 27  1  0
 26 28  1  0
 26 29  1  0
  2 30  1  0
 30 31  1  0
 31 32  1  0
 31 33  1  0
 33 34  1  0
 34 35  2  0
 34 36  2  0
 34 37  1  0
M  CHG  2   2   1  37  -1
M  END
$$$$

     RDKit          2D

 27 26  0  0  0  0  0  0  0  0999 V2000
    0.0000   -2.5981    0.0000 O   0  0  0  0  0  0  0  0  0  0  0  0
   -0.7500   -1.2990    0.0000 C   0  0  0  0  0  0  0  0  0  0  0  0
   -2.2500   -1.2990    0.0000 O   0  0  0  0  0  0  0  0  0  0  0  0
    0.0000    0.0000    0.0000 C   0  0  0  0  0  0  0  0  0  0  0  0
    1.5000    0.0000    0.0000 C   0  0  0  0  0  0  0  0  0  0  0  0
    2.2500   -1.2990    0.0000 C   0  0  0  0  0  0  0  0  0  0  0  0
    3.5490   -0.5490    0.0000 F   0  0  0  0  0  0  0  0  0  0  0  0
    0.9510   -2.0490    0.0000 F   0  0  0  0  0  0  0  0  0  0  0  0
    3.0000   -2.5981    0.0000 C   0  0  0  0  0  0  0  0  0  0  0  0
    1.7010   -3.3481    0.0000 F   0  0  0  0  0  0  0  0  0  0  0  0
    4.2990   -1.8481    0.0000 F   0  0  0  0  0  0  0  0  0  0  0  0
    3.7500   -3.8971    0.0000 C   0  0  0  0  0  0  0  0  0  0  0  0
    5.0490   -3.1471    0.0000 F   0  0  0  0  0  0  0  0  0  0  0  0
    2.4510   -4.6471    0.0000 F   0  0  0  0  0  0  0  0  0  0  0  0
    4.5000   -5.1962    0.0000 C   0  0  0  0  0  0  0  0  0  0  0  0
    3.2010   -5.9462    0.0000 F   0  0  0  0  0  0  0  0  0  0  0  0
    5.7990   -4.4462    0.0000 F   0  0  0  0  0  0  0  0  0  0  0  0
    5.2500   -6.4952    0.0000 C   0  0  0  0  0  0  0  0  0  0  0  0
    6.5490   -5.7452    0.0000 F   0  0  0  0  0  0  0  0  0  0  0  0
    3.9510   -7.2452    0.0000 F   0  0  0  0  0  0  0  0  0  0  0  0
    6.0000   -7.7942    0.0000 C   0  0  0  0  0  0  0  0  0  0  0  0
    4.7010   -8.5442    0.0000 F   0  0  0  0  0  0  0  0  0  0  0  0
    7.2990   -7.0442    0.0000 F   0  0  0  0  0  0  0  0  0  0  0  0
    6.7500   -9.0933    0.0000 C   0  0  0  0  0  0  0  0  0  0  0  0
    7.5000  -10.3923    0.0000 F   0  0  0  0  0  0  0  0  0  0  0  0
    8.0490   -8.3433    0.0000 F   0  0  0  0  0  0  0  0  0  0  0  0
    5.4510   -9.8433    0.0000 F   0  0  0  0  0  0  0  0  0  0  0  0
  1  2  2  0
  2  3  1  0
  2  4  1  0
  4  5  2  0
  5  6  1  0
  6  7  1  0
  6  8  1  0
  6  9  1  0
  9 10  1  0
  9 11  1  0
  9 12  1  0
 12 13  1  0
 12 14  1  0
 12 15  1  0
 15 16  1  0
 15 17  1  0
 15 18  1  0
 18 19  1  0
 18 20  1  0
 18 21  1  0
 21 22  1  0
 21 23  1  0
 21 24  1  0
 24 25  1  0
 24 26  1  0
 24 27  1  0
M  END
$$$$

     RDKit          2D

 29 28  0  0  0  0  0  0  0  0999 V2000
   -5.9462   -0.2010    0.0000 O   0  0  0  0  0  0  0  0  0  0  0  0
   -5.1962   -1.5000    0.0000 S   0  0  0  0  0  0  0  0  0  0  0  0
   -4.8847   -2.2338    0.0000 O   0  0  0  0  0  0  0  0  0  0  0  0
   -6.4952   -2.2500    0.0000 N   0  0  0  0  0  0  0  0  0  0  0  0
   -7.7942   -1.5000    0.0000 C   0  0  0  0  0  0  0  0  0  0  0  0
   -9.0933   -2.2500    0.0000 C   0  0  0  0  0  0  0  0  0  0  0  0
  -10.3923   -1.5000    0.0000 O   0  0  0  0  0  0  0  0  0  0  0  0
   -3.8971   -0.7500    0.0000 C   0  0  0  0  0  0  0  0  0  0  0  0
   -4.6471    0.5490    0.0000 F   0  0  0  0  0  0  0  0  0  0  0  0
   -2.5981   -0.0000    0.0000 F   0  0  0  0  0  0  0  0  0  0  0  0
   -3.1471   -2.0490    0.0000 C   0  0  0  0  0  0  0  0  0  0  0  0
   -1.8481   -1.2990    0.0000 F   0  0  0  0  0  0  0  0  0  0  0  0
   -3.8545   -2.5821    0.0000 F   0  0  0  0  0  0  0  0  0  0  0  0
   -2.3971   -3.3481    0.0000 C   0  0  0  0  0  0  0  0  0  0  0  0
   -1.0981   -2.5981    0.0000 F   0  0  0  0  0  0  0  0  0  0  0  0
   -3.6962   -4.0981    0.0000 F   0  0  0  0  0  0  0  0  0  0  0  0
   -1.6471   -4.6471    0.0000 C   0  0  0  0  0  0  0  0  0  0  0  0
   -2.9462   -5.3971    0.0000 F   0  0  0  0  0  0  0  0  0  0  0  0
   -0.3481   -3.8971    0.0000 F   0  0  0  0  0  0  0  0  0  0  0  0
   -0.8971   -5.9462    0.0000 C   0  0  0  0  0  0  0  0  0  0  0  0
   -2.1962   -6.6962    0.0000 F   0  0  0  0  0  0  0  0  0  0  0  0
    0.4019   -5.1962    0.0000 F   0  0  0  0  0  0  0  0  0  0  0  0
   -0.1471   -7.2452    0.0000 C   0  0  0  0  0  0  0  0  0  0  0  0
    1.1519   -6.4952    0.0000 F   0  0  0  0  0  0  0  0  0  0  0  0
   -1.4462   -7.9952    0.0000 F   0  0  0  0  0  0  0  0  0  0  0  0
    0.6029   -8.5442    0.0000 C   0  0  0  0  0  0  0  0  0  0  0  0
    1.3529   -9.8433    0.0000 F   0  0  0  0  0  0  0  0  0  0  0  0
   -0.6962   -9.2942    0.0000 F   0  0  0  0  0  0  0  0  0  0  0  0
    1.9019   -7.7942    0.0000 F   0  0  0  0  0  0  0  0  0  0  0  0
  1  2  2  0
  2  3  2  0
  2  4  1  0
  4  5  1  0
  5  6  1  0
  6  7  1  0
  2  8  1  0
  8  9  1  0
  8 10  1  0
  8 11  1  0
 11 12  1  0
 11 13  1  0
 11 14  1  0
 14 15  1  0
 14 16  1  0
 14 17  1  0
 17 18  1  0
 17 19  1  0
 17 20  1  0
 20 21  1  0
 20 22  1  0
 20 23  1  0
 23 24  1  0
 23 25  1  0
 23 26  1  0
 26 27  1  0
 26 28  1  0
 26 29  1  0
M  END
$$$$

     RDKit          2D

 24 23  0  0  0  0  0  0  0  0999 V2000
    1.2990    2.2500    0.0000 O   0  0  0  0  0  0  0  0  0  0  0  0
   -0.0000    3.0000    0.0000 C   0  0  0  0  0  0  0  0  0  0  0  0
   -0.0000    4.5000    0.0000 O   0  0  0  0  0  0  0  0  0  0  0  0
   -1.2990    2.2500    0.0000 C   0  0  0  0  0  0  0  0  0  0  0  0
   -1.2990    0.7500    0.0000 N   0  0  0  0  0  0  0  0  0  0  0  0
   -2.5981   -0.0000    0.0000 S   0  0  0  0  0  0  0  0  0  0  0  0
   -3.3481    1.2990    0.0000 O   0  0  0  0  0  0  0  0  0  0  0  0
   -2.1183   -0.6366    0.0000 O   0  0  0  0  0  0  0  0  0  0  0  0
   -3.8971   -0.7500    0.0000 C   0  0  0  0  0  0  0  0  0  0  0  0
   -4.6471    0.5490    0.0000 F   0  0  0  0  0  0  0  0  0  0  0  0
   -5.1962   -1.5000    0.0000 F   0  0  0  0  0  0  0  0  0  0  0  0
   -3.1471   -2.0490    0.0000 C   0  0  0  0  0  0  0  0  0  0  0  0
   -2.3318   -1.7030    0.0000 F   0  0  0  0  0  0  0  0  0  0  0  0
   -4.4462   -2.7990    0.0000 F   0  0  0  0  0  0  0  0  0  0  0  0
   -2.3971   -3.3481    0.0000 C   0  0  0  0  0  0  0  0  0  0  0  0
   -1.0981   -2.5981    0.0000 F   0  0  0  0  0  0  0  0  0  0  0  0
   -3.6962   -4.0981    0.0000 F   0  0  0  0  0  0  0  0  0  0  0  0
   -1.6471   -4.6471    0.0000 C   0  0  0  0  0  0  0  0  0  0  0  0
   -0.3481   -3.8971    0.0000 F   0  0  0  0  0  0  0  0  0  0  0  0
   -2.9462   -5.3971    0.0000 F   0  0  0  0  0  0  0  0  0  0  0  0
   -0.8971   -5.9462    0.0000 C   0  0  0  0  0  0  0  0  0  0  0  0
   -0.1471   -7.2452    0.0000 F   0  0  0  0  0  0  0  0  0  0  0  0
   -2.1962   -6.6962    0.0000 F   0  0  0  0  0  0  0  0  0  0  0  0
    0.4019   -5.1962    0.0000 F   0  0  0  0  0  0  0  0  0  0  0  0
  1  2  2  0
  2  3  1  0
  2  4  1  0
  4  5  1  0
  5  6  1  0
  6  7  2  0
  6  8  2  0
  6  9  1  0
  9 10  1  0
  9 11  1  0
  9 12  1  0
 12 13  1  0
 12 14  1  0
 12 15  1  0
 15 16  1  0
 15 17  1  0
 15 18  1  0
 18 19  1  0
 18 20  1  0
 18 21  1  0
 21 22  1  0
 21 23  1  0
 21 24  1  0
M  END
$$$$

     RDKit          2D

  9  8  0  0  0  0  0  0  0  0999 V2000
    0.0000    0.0000    0.0000 C   0  0  0  0  0  3  0  0  0  0  0  0
    1.2990    0.7500    0.0000 C   0  0  0  0  0  0  0  0  0  0  0  0
    2.5981   -0.0000    0.0000 C   0  0  0  0  0  0  0  0  0  0  0  0
    3.3481    1.2990    0.0000 F   0  0  0  0  0  0  0  0  0  0  0  0
    1.8481   -1.2990    0.0000 F   0  0  0  0  0  0  0  0  0  0  0  0
    3.8971   -0.7500    0.0000 C   0  0  0  0  0  0  0  0  0  0  0  0
    5.1962   -1.5000    0.0000 F   0  0  0  0  0  0  0  0  0  0  0  0
    3.1471   -2.0490    0.0000 F   0  0  0  0  0  0  0  0  0  0  0  0
    4.6471    0.5490    0.0000 F   0  0  0  0  0  0  0  0  0  0  0  0
  1  2  1  0
  2  3  1  0
  3  4  1  0
  3  5  1  0
  3  6  1  0
  6  7  1  0
  6  8  1  0
  6  9  1  0
M  RAD  1   1   2
M  END
$$$$

     RDKit          2D

 30 29  0  0  0  0  0  0  0  0999 V2000
   -1.2990    0.7500    0.0000 O   0  0  0  0  0  0  0  0  0  0  0  0
    0.0000    0.0000    0.0000 C   0  0  0  0  0  0  0  0  0  0  0  0
    1.2990    0.7500    0.0000 C   0  0  0  0  0  0  0  0  0  0  0  0
    2.5981   -0.0000    0.0000 C   0  0  0  0  0  0  0  0  0  0  0  0
    3.3481    1.2990    0.0000 F   0  0  0  0  0  0  0  0  0  0  0  0
    1.8481   -1.2990    0.0000 F   0  0  0  0  0  0  0  0  0  0  0  0
    3.8971   -0.7500    0.0000 C   0  0  0  0  0  0  0  0  0  0  0  0
    3.1471   -2.0490    0.0000 F   0  0  0  0  0  0  0  0  0  0  0  0
    4.6471    0.5490    0.0000 F   0  0  0  0  0  0  0  0  0  0  0  0
    5.1962   -1.5000    0.0000 C   0  0  0  0  0  0  0  0  0  0  0  0
    5.9462   -0.2010    0.0000 F   0  0  0  0  0  0  0  0  0  0  0  0
    4.4462   -2.7990    0.0000 F   0  0  0  0  0  0  0  0  0  0  0  0
    6.4952   -2.2500    0.0000 C   0  0  0  0  0  0  0  0  0  0  0  0
    5.7452   -3.5490    0.0000 F   0  0  0  0  0  0  0  0  0  0  0  0
    7.2452   -0.9510    0.0000 F   0  0  0  0  0  0  0  0  0  0  0  0
    7.7942   -3.0000    0.0000 C   0  0  0  0  0  0  0  0  0  0  0  0
    7.0442   -4.2990    0.0000 F   0  0  0  0  0  0  0  0  0  0  0  0
    8.5442   -1.7010    0.0000 F   0  0  0  0  0  0  0  0  0  0  0  0
    9.0933   -3.7500    0.0000 C   0  0  0  0  0  0  0  0  0  0  0  0
    9.8433   -2.4510    0.0000 F   0  0  0  0  0  0  0  0  0  0  0  0
    8.3433   -5.0490    0.0000 F   0  0  0  0  0  0  0  0  0  0  0  0
   10.3923   -4.5000    0.0000 C   0  0  0  0  0  0  0  0  0  0  0  0
    9.6423   -5.7990    0.0000 F   0  0  0  0  0  0  0  0  0  0  0  0
   11.1423   -3.2010    0.0000 F   0  0  0  0  0  0  0  0  0  0  0  0
   11.6913   -5.2500    0.0000 C   0  0  0  0  0  0  0  0  0  0  0  0
   12.4413   -3.9510    0.0000 F   0  0  0  0  0  0  0  0  0  0  0  0
   10.9413   -6.5490    0.0000 F   0  0  0  0  0  0  0  0  0  0  0  0
   12.9904   -6.0000    0.0000 C   0  0  0  0  0  0  0  0  0  0  0  0
   14.2894   -5.2500    0.0000 C   0  0  0  0  0  0  0  0  0  0  0  0
   15.5885   -6.0000    0.0000 O   0  0  0  0  0  0  0  0  0  0  0  0
  1  2  1  0
  2  3  1  0
  3  4  1  0
  4  5  1  0
  4  6  1  0
  4  7  1  0
  7  8  1  0
  7  9  1  0
  7 10  1  0
 10 11  1  0
 10 12  1  0
 10 13  1  0
 13 14  1  0
 13 15  1  0
 13 16  1  0
 16 17  1  0
 16 18  1  0
 16 19  1  0
 19 20  1  0
 19 21  1  0
 19 22  1  0
 22 23  1  0
 22 24  1  0
 22 25  1  0
 25 26  1  0
 25 27  1  0
 25 28  1  0
 28 29  1  0
 29 30  1  0
M  END
$$$$

     RDKit          2D

 14 13  0  0  0  0  0  0  0  0999 V2000
   -0.0000   -1.5000    0.0000 F   0  0  0  0  0  0  0  0  0  0  0  0
    0.0000    0.0000    0.0000 C   0  0  0  0  0  0  0  0  0  0  0  0
    1.2990    0.7500    0.0000 C   0  0  0  0  0  0  0  0  0  0  0  0
    1.2990    2.2500    0.0000 F   0  0  0  0  0  0  0  0  0  0  0  0
    2.5981   -0.0000    0.0000 C   0  0  0  0  0  0  0  0  0  0  0  0
    3.3481    1.2990    0.0000 F   0  0  0  0  0  0  0  0  0  0  0  0
    1.8481   -1.2990    0.0000 F   0  0  0  0  0  0  0  0  0  0  0  0
    3.8971   -0.7500    0.0000 C   0  0  0  0  0  0  0  0  0  0  0  0
    5.1962   -1.5000    0.0000 F   0  0  0  0  0  0  0  0  0  0  0  0
    3.1471   -2.0490    0.0000 F   0  0  0  0  0  0  0  0  0  0  0  0
    4.6471    0.5490    0.0000 F   0  0  0  0  0  0  0  0  0  0  0  0
   -1.2990    0.7500    0.0000 C   0  0  0  0  0  0  0  0  0  0  0  0
   -2.5981    0.0000    0.0000 F   0  0  0  0  0  0  0  0  0  0  0  0
   -1.2990    2.2500    0.0000 F   0  0  0  0  0  0  0  0  0  0  0  0
  1  2  1  0
  2  3  2  3
  3  4  1  0
  3  5  1  0
  5  6  1  0
  5  7  1  0
  5  8  1  0
  8  9  1  0
  8 10  1  0
  8 11  1  0
  2 12  1  0
 12 13  1  0
 12 14  1  0
M  END
$$$$

     RDKit          2D

 14 13  0  0  0  0  0  0  0  0999 V2000
    0.0000    0.0000    0.0000 C   0  0  0  0  0  0  0  0  0  0  0  0
    1.2990    0.7500    0.0000 C   0  0  0  0  0  0  0  0  0  0  0  0
    2.0490   -0.5490    0.0000 F   0  0  0  0  0  0  0  0  0  0  0  0
    0.5490    2.0490    0.0000 F   0  0  0  0  0  0  0  0  0  0  0  0
    2.5981    1.5000    0.0000 C   0  0  0  0  0  0  0  0  0  0  0  0
    2.0650    2.2074    0.0000 F   0  0  0  0  0  0  0  0  0  0  0  0
    3.3481    0.2010    0.0000 F   0  0  0  0  0  0  0  0  0  0  0  0
    3.8971    2.2500    0.0000 C   0  0  0  0  0  0  0  0  0  0  0  0
    5.1962    3.0000    0.0000 F   0  0  0  0  0  0  0  0  0  0  0  0
    4.6471    0.9510    0.0000 F   0  0  0  0  0  0  0  0  0  0  0  0
    3.1471    3.5490    0.0000 S   0  0  0  0  0  0  0  0  0  0  0  0
    2.4133    3.2376    0.0000 O   0  0  0  0  0  0  0  0  0  0  0  0
    4.4462    4.2990    0.0000 O   0  0  0  0  0  0  0  0  0  0  0  0
    2.3971    4.8481    0.0000 O   0  0  0  0  0  0  0  0  0  0  0  0
  1  2  1  0
  2  3  1  0
  2  4  1  0
  2  5  1  0
  5  6  1  0
  5  7  1  0
  5  8  1  0
  8  9  1  0
  8 10  1  0
  8 11  1  0
 11 12  2  0
 11 13  2  0
 11 14  1  0
M  END
$$$$

     RDKit          2D

 22 21  0  0  0  0  0  0  0  0999 V2000
   -2.5981    1.5000    0.0000 F   0  0  0  0  0  0  0  0  0  0  0  0
   -1.2990    0.7500    0.0000 C   0  0  0  0  0  0  0  0  0  0  0  0
   -2.0490   -0.5490    0.0000 F   0  0  0  0  0  0  0  0  0  0  0  0
   -0.5490    2.0490    0.0000 F   0  0  0  0  0  0  0  0  0  0  0  0
   -0.0000   -0.0000    0.0000 C   0  0  0  0  0  0  0  0  0  0  0  0
    1.2990    0.7500    0.0000 C   0  0  0  0  0  0  0  0  0  0  0  0
    2.5981   -0.0000    0.0000 C   0  0  0  0  0  0  0  0  0  0  0  0
    3.3481    1.2990    0.0000 C   0  0  0  0  0  0  0  0  0  0  0  0
    4.0981    2.5981    0.0000 F   0  0  0  0  0  0  0  0  0  0  0  0
    4.1634    0.9530    0.0000 F   0  0  0  0  0  0  0  0  0  0  0  0
    2.0490    2.0490    0.0000 F   0  0  0  0  0  0  0  0  0  0  0  0
    1.8481   -1.2990    0.0000 C   0  0  0  0  0  0  0  0  0  0  0  0
    1.0981   -2.5981    0.0000 F   0  0  0  0  0  0  0  0  0  0  0  0
    2.5554   -1.8321    0.0000 F   0  0  0  0  0  0  0  0  0  0  0  0
    0.4062   -0.8857    0.0000 F   0  0  0  0  0  0  0  0  0  0  0  0
    3.8971   -0.7500    0.0000 C   0  0  0  0  0  0  0  0  0  0  0  0
    3.5511   -1.5653    0.0000 F   0  0  0  0  0  0  0  0  0  0  0  0
    4.4302   -0.0426    0.0000 F   0  0  0  0  0  0  0  0  0  0  0  0
    5.1962   -1.5000    0.0000 C   0  0  0  0  0  0  0  0  0  0  0  0
    6.4952   -2.2500    0.0000 F   0  0  0  0  0  0  0  0  0  0  0  0
    4.4462   -2.7990    0.0000 F   0  0  0  0  0  0  0  0  0  0  0  0
    5.9462   -0.2010    0.0000 F   0  0  0  0  0  0  0  0  0  0  0  0
  1  2  1  0
  2  3  1  0
  2  4  1  0
  2  5  1  0
  5  6  2  3
  6  7  1  0
  7  8  1  0
  8  9  1  0
  8 10  1  0
  8 11  1  0
  7 12  1  0
 12 13  1  0
 12 14  1  0
 12 15  1  0
  7 16  1  0
 16 17  1  0
 16 18  1  0
 16 19  1  0
 19 20  1  0
 19 21  1  0
 19 22  1  0
M  END
$$$$

     RDKit          2D

 20 20  0  0  0  0  0  0  0  0999 V2000
    3.7981    1.9284    0.0000 F   0  0  0  0  0  0  0  0  0  0  0  0
    2.6491    0.9642    0.0000 C   0  0  0  0  0  0  0  0  0  0  0  0
    3.6132   -0.1849    0.0000 F   0  0  0  0  0  0  0  0  0  0  0  0
    1.8321    2.2222    0.0000 F   0  0  0  0  0  0  0  0  0  0  0  0
    1.5000    0.0000    0.0000 C   0  0  0  0  0  0  0  0  0  0  0  0
    2.6491   -0.9642    0.0000 F   0  0  0  0  0  0  0  0  0  0  0  0
    0.7500   -1.2990    0.0000 O   0  0  0  0  0  0  0  0  0  0  0  0
   -0.7500   -1.2990    0.0000 C   0  0  0  0  0  0  0  0  0  0  0  0
   -0.4895   -2.7762    0.0000 F   0  0  0  0  0  0  0  0  0  0  0  0
   -1.4603   -1.6610    0.0000 F   0  0  0  0  0  0  0  0  0  0  0  0
   -1.5000    0.0000    0.0000 C   0  0  0  0  0  0  0  0  0  0  0  0
   -2.6491    0.9642    0.0000 F   0  0  0  0  0  0  0  0  0  0  0  0
   -2.6491   -0.9642    0.0000 C   0  0  0  0  0  0  0  0  0  0  0  0
   -3.7981   -1.9284    0.0000 F   0  0  0  0  0  0  0  0  0  0  0  0
   -3.6132    0.1849    0.0000 F   0  0  0  0  0  0  0  0  0  0  0  0
   -2.2149   -1.6327    0.0000 F   0  0  0  0  0  0  0  0  0  0  0  0
   -0.7500    1.2990    0.0000 O   0  0  0  0  0  0  0  0  0  0  0  0
    0.7500    1.2990    0.0000 C   0  0  0  0  0  0  0  0  0  0  0  0
    0.4895    2.7762    0.0000 F   0  0  0  0  0  0  0  0  0  0  0  0
    2.0865    1.9801    0.0000 F   0  0  0  0  0  0  0  0  0  0  0  0
  1  2  1  0
  2  3  1  0
  2  4  1  0
  2  5  1  0
  5  6  1  0
  5  7  1  0
  7  8  1  0
  8  9  1  0
  8 10  1  0
  8 11  1  0
 11 12  1  0
 11 13  1  0
 13 14  1  0
 13 15  1  0
 13 16  1  0
 11 17  1  0
 17 18  1  0
 18 19  1  0
 18 20  1  0
 18  5  1  0
M  END
$$$$

     RDKit          2D

 40 42  0  0  0  0  0  0  0  0999 V2000
   -0.7500   -6.4952    0.0000 O   0  0  0  0  0  0  0  0  0  0  0  0
    0.7500   -6.4952    0.0000 C   0  0  0  0  0  0  0  0  0  0  0  0
    1.5000   -5.1962    0.0000 C   0  0  0  0  0  0  0  0  0  0  0  0
    0.7500   -3.8971    0.0000 N   0  0  0  0  0  0  0  0  0  0  0  0
    1.5000   -2.5981    0.0000 C   0  0  0  0  0  0  0  0  0  0  0  0
    0.7500   -1.2990    0.0000 C   0  0  0  0  0  0  0  0  0  0  0  0
    1.5000    0.0000    0.0000 C   0  0  0  0  0  0  0  0  0  0  0  0
    0.7500    1.2990    0.0000 C   0  0  0  0  0  0  0  0  0  0  0  0
   -0.7500    1.2990    0.0000 C   0  0  0  0  0  0  0  0  0  0  0  0
   -1.5000    0.0000    0.0000 C   0  0  0  0  0  0  0  0  0  0  0  0
   -3.0000    0.0000    0.0000 C   0  0  0  0  0  0  0  0  0  0  0  0
   -3.0000    1.5000    0.0000 F   0  0  0  0  0  0  0  0  0  0  0  0
   -3.0000   -1.5000    0.0000 F   0  0  0  0  0  0  0  0  0  0  0  0
   -4.5000    0.0000    0.0000 C   0  0  0  0  0  0  0  0  0  0  0  0
   -4.5000   -1.5000    0.0000 F   0  0  0  0  0  0  0  0  0  0  0  0
   -4.5000    1.5000    0.0000 F   0  0  0  0  0  0  0  0  0  0  0  0
   -6.0000    0.0000    0.0000 C   0  0  0  0  0  0  0  0  0  0  0  0
   -7.5000    0.0000    0.0000 F   0  0  0  0  0  0  0  0  0  0  0  0
   -6.0000    1.5000    0.0000 F   0  0  0  0  0  0  0  0  0  0  0  0
   -6.0000   -1.5000    0.0000 F   0  0  0  0  0  0  0  0  0  0  0  0
   -0.7500   -1.2990    0.0000 C   0  0  0  0  0  0  0  0  0  0  0  0
   -0.7500   -3.8971    0.0000 C   0  0  0  0  0  0  0  0  0  0  0  0
   -1.5000   -2.5981    0.0000 C   0  0  0  0  0  0  0  0  0  0  0  0
   -3.0000   -2.5981    0.0000 C   0  0  0  0  0  0  0  0  0  0  0  0
   -3.7500   -3.8971    0.0000 C   0  0  0  0  0  0  0  0  0  0  0  0
   -3.0000   -5.1962    0.0000 C   0  0  0  0  0  0  0  0  0  0  0  0
   -3.7500   -6.4952    0.0000 O   0  0  0  0  0  0  0  0  0  0  0  0
   -5.2500   -6.4952    0.0000 C   0  0  0  0  0  0  0  0  0  0  0  0
   -6.0000   -5.1962    0.0000 C   0  0  0  0  0  0  0  0  0  0  0  0
   -7.5000   -5.1962    0.0000 C   0  0  0  0  0  0  0  0  0  0  0  0
   -8.2500   -3.8971    0.0000 Br  0  0  0  0  0  0  0  0  0  0  0  0
   -8.2500   -6.4952    0.0000 C   0  0  0  0  0  0  0  0  0  0  0  0
   -7.5000   -7.7942    0.0000 C   0  0  0  0  0  0  0  0  0  0  0  0
   -6.0000   -7.7942    0.0000 C   0  0  0  0  0  0  0  0  0  0  0  0
   -5.2500   -9.0933    0.0000 F   0  0  0  0  0  0  0  0  0  0  0  0
   -1.5000   -5.1962    0.0000 C   0  0  0  0  0  0  0  0  0  0  0  0
    1.5000   -7.7942    0.0000 C   0  0  0  0  0  0  0  0  0  0  0  0
    2.2500   -9.0933    0.0000 F   0  0  0  0  0  0  0  0  0  0  0  0
    0.2010   -8.5442    0.0000 F   0  0  0  0  0  0  0  0  0  0  0  0
    2.7990   -7.0442    0.0000 F   0  0  0  0  0  0  0  0  0  0  0  0
  1  2  1  0
  2  3  1  0
  3  4  1  0
  4  5  1  0
  5  6  1  0
  6  7  2  0
  7  8  1  0
  8  9  2  0
  9 10  1  0
 10 11  1  0
 11 12  1  0
 11 13  1  0
 11 14  1  0
 14 15  1  0
 14 16  1  0
 14 17  1  0
 17 18  1  0
 17 19  1  0
 17 20  1  0
 10 21  2  0
  4 22  1  0
 22 23  2  0
 23 24  1  0
 24 25  2  0
 25 26  1  0
 26 27  1  0
 27 28  1  0
 28 29  2  0
 29 30  1  0
 30 31  1  0
 30 32  2  0
 32 33  1  0
 33 34  2  0
 34 35  1  0
 26 36  2  0
  2 37  1  0
 37 38  1  0
 37 39  1  0
 37 40  1  0
 21  6  1  0
 36 22  1  0
 34 28  1  0
M  END
$$$$

     RDKit          2D

 27 27  0  0  0  0  0  0  0  0999 V2000
    3.0000    0.0000    0.0000 N   0  0  0  0  0  0  0  0  0  0  0  0
    1.5000    0.0000    0.0000 C   0  0  0  0  0  0  0  0  0  0  0  0
    0.7500   -1.2990    0.0000 C   0  0  0  0  0  0  0  0  0  0  0  0
   -0.7500   -1.2990    0.0000 C   0  0  0  0  0  0  0  0  0  0  0  0
   -1.5000   -2.5981    0.0000 Br  0  0  0  0  0  0  0  0  0  0  0  0
   -1.5000    0.0000    0.0000 C   0  0  0  0  0  0  0  0  0  0  0  0
   -3.0000    0.0000    0.0000 O   0  0  0  0  0  0  0  0  0  0  0  0
   -3.7500    1.2990    0.0000 C   0  0  0  0  0  0  0  0  0  0  0  0
   -3.0000    2.5981    0.0000 F   0  0  0  0  0  0  0  0  0  0  0  0
   -5.2500    1.2990    0.0000 C   0  0  0  0  0  0  0  0  0  0  0  0
   -6.0000   -0.0000    0.0000 F   0  0  0  0  0  0  0  0  0  0  0  0
   -6.0000    2.5981    0.0000 C   0  0  0  0  0  0  0  0  0  0  0  0
   -7.2990    1.8481    0.0000 F   0  0  0  0  0  0  0  0  0  0  0  0
   -4.7010    3.3481    0.0000 F   0  0  0  0  0  0  0  0  0  0  0  0
   -6.7500    3.8971    0.0000 C   0  0  0  0  0  0  0  0  0  0  0  0
   -5.4510    4.6471    0.0000 F   0  0  0  0  0  0  0  0  0  0  0  0
   -8.0490    3.1471    0.0000 F   0  0  0  0  0  0  0  0  0  0  0  0
   -7.5000    5.1962    0.0000 C   0  0  0  0  0  0  0  0  0  0  0  0
   -8.7990    4.4462    0.0000 F   0  0  0  0  0  0  0  0  0  0  0  0
   -6.2010    5.9462    0.0000 F   0  0  0  0  0  0  0  0  0  0  0  0
   -8.2500    6.4952    0.0000 C   0  0  0  0  0  0  0  0  0  0  0  0
   -9.0000    7.7942    0.0000 F   0  0  0  0  0  0  0  0  0  0  0  0
   -6.9510    7.2452    0.0000 F   0  0  0  0  0  0  0  0  0  0  0  0
   -9.5490    5.7452    0.0000 F   0  0  0  0  0  0  0  0  0  0  0  0
   -0.7500    1.2990    0.0000 C   0  0  0  0  0  0  0  0  0  0  0  0
    0.7500    1.2990    0.0000 C   0  0  0  0  0  0  0  0  0  0  0  0
    1.5000    2.5981    0.0000 N   0  0  0  0  0  0  0  0  0  0  0  0
  1  2  1  0
  2  3  2  0
  3  4  1  0
  4  5  1  0
  4  6  2  0
  6  7  1  0
  7  8  1  0
  8  9  1  0
  8 10  2  3
 10 11  1  0
 10 12  1  0
 12 13  1  0
 12 14  1  0
 12 15  1  0
 15 16  1  0
 15 17  1  0
 15 18  1  0
 18 19  1  0
 18 20  1  0
 18 21  1  0
 21 22  1  0
 21 23  1  0
 21 24  1  0
  6 25  1  0
 25 26  2  0
 26 27  1  0
 26  2  1  0
M  END
$$$$

     RDKit          2D

 35 39  0  0  0  0  0  0  0  0999 V2000
    4.6740   -4.8322    0.0000 C   0  0  0  0  0  0  0  0  0  0  0  0
    3.3037   -4.2221    0.0000 C   0  0  0  0  0  0  0  0  0  0  0  0
    2.9918   -2.7549    0.0000 S   0  0  0  0  0  0  0  0  0  0  0  0
    1.5000   -2.5981    0.0000 C   0  0  0  0  0  0  0  0  0  0  0  0
    0.7500   -1.2990    0.0000 C   0  0  0  0  0  0  0  0  0  0  0  0
    1.5000    0.0000    0.0000 C   0  0  0  0  0  0  0  0  0  0  0  0
    0.7500    1.2990    0.0000 C   0  0  0  0  0  0  0  0  0  0  0  0
   -0.7500    1.2990    0.0000 C   0  0  0  0  0  0  0  0  0  0  0  0
   -1.5000    0.0000    0.0000 C   0  0  0  0  0  0  0  0  0  0  0  0
   -0.7500   -1.2990    0.0000 C   0  0  0  0  0  0  0  0  0  0  0  0
    0.8899   -3.9684    0.0000 C   0  0  0  0  0  0  0  0  0  0  0  0
    2.0046   -4.9721    0.0000 C   0  0  0  0  0  0  0  0  0  0  0  0
    1.8478   -6.4639    0.0000 C   0  0  0  0  0  0  0  0  0  0  0  0
    2.9625   -7.4676    0.0000 C   0  0  0  0  0  0  0  0  0  0  0  0
    4.4298   -7.1557    0.0000 C   0  0  0  0  0  0  0  0  0  0  0  0
    5.0399   -5.7854    0.0000 C   0  0  0  0  0  0  0  0  0  0  0  0
    6.5316   -5.9422    0.0000 C   0  0  0  0  0  0  0  0  0  0  0  0
    7.5353   -4.8275    0.0000 C   0  0  0  0  0  0  0  0  0  0  0  0
    9.0026   -5.1393    0.0000 C   0  0  0  0  0  0  0  0  0  0  0  0
   10.0063   -4.0246    0.0000 C   0  0  0  0  0  0  0  0  0  0  0  0
    9.5427   -2.5980    0.0000 C   0  0  0  0  0  0  0  0  0  0  0  0
    8.0755   -2.2862    0.0000 C   0  0  0  0  0  0  0  0  0  0  0  0
    7.0718   -3.4009    0.0000 C   0  0  0  0  0  0  0  0  0  0  0  0
    6.8435   -7.4094    0.0000 S   0  0  0  0  0  0  0  0  0  0  0  0
    5.5445   -8.1594    0.0000 C   0  0  0  0  0  0  0  0  0  0  0  0
    5.3877   -9.6512    0.0000 C   0  0  0  0  0  0  0  0  0  0  0  0
    2.3524   -8.8379    0.0000 C   0  0  0  0  0  0  0  0  0  0  0  0
    3.7790   -9.3014    0.0000 F   0  0  0  0  0  0  0  0  0  0  0  0
    2.0406  -10.3051    0.0000 F   0  0  0  0  0  0  0  0  0  0  0  0
    0.8606   -8.6811    0.0000 C   0  0  0  0  0  0  0  0  0  0  0  0
    0.8606  -10.1811    0.0000 F   0  0  0  0  0  0  0  0  0  0  0  0
   -0.6311   -8.8379    0.0000 F   0  0  0  0  0  0  0  0  0  0  0  0
    0.5488   -7.2139    0.0000 C   0  0  0  0  0  0  0  0  0  0  0  0
   -0.8778   -7.6774    0.0000 F   0  0  0  0  0  0  0  0  0  0  0  0
   -0.0613   -5.8436    0.0000 F   0  0  0  0  0  0  0  0  0  0  0  0
  1  2  1  0
  2  3  1  0
  3  4  1  0
  4  5  1  0
  5  6  2  0
  6  7  1  0
  7  8  2  0
  8  9  1  0
  9 10  2  0
  4 11  2  0
 11 12  1  0
 12 13  1  0
 13 14  2  0
 14 15  1  0
 15 16  1  0
 16 17  2  0
 17 18  1  0
 18 19  2  0
 19 20  1  0
 20 21  2  0
 21 22  1  0
 22 23  2  0
 17 24  1  0
 24 25  1  0
 25 26  1  0
 14 27  1  0
 27 28  1  0
 27 29  1  0
 27 30  1  0
 30 31  1  0
 30 32  1  0
 30 33  1  0
 33 34  1  0
 33 35  1  0
 12  2  2  0
 33 13  1  0
 10  5  1  0
 25 15  2  0
 23 18  1  0
M  END
$$$$

     RDKit          2D

 34 35  0  0  0  0  0  0  0  0999 V2000
    3.7500   -1.2990    0.0000 O   0  0  0  0  0  0  0  0  0  0  0  0
    3.0000   -2.5981    0.0000 C   0  0  0  0  0  0  0  0  0  0  0  0
    1.5000   -2.5981    0.0000 N   0  0  0  0  0  0  0  0  0  0  0  0
    0.7500   -1.2990    0.0000 C   0  0  0  0  0  0  0  0  0  0  0  0
    1.5000    0.0000    0.0000 C   0  0  0  0  0  0  0  0  0  0  0  0
    3.0000    0.0000    0.0000 Br  0  0  0  0  0  0  0  0  0  0  0  0
    0.7500    1.2990    0.0000 C   0  0  0  0  0  0  0  0  0  0  0  0
   -0.7500    1.2990    0.0000 C   0  0  0  0  0  0  0  0  0  0  0  0
   -1.5000    2.5981    0.0000 C   0  0  0  0  0  0  0  0  0  0  0  0
   -2.7990    1.8481    0.0000 F   0  0  0  0  0  0  0  0  0  0  0  0
   -2.2500    3.8971    0.0000 C   0  0  0  0  0  0  0  0  0  0  0  0
   -3.0000    5.1962    0.0000 F   0  0  0  0  0  0  0  0  0  0  0  0
   -3.5490    3.1471    0.0000 F   0  0  0  0  0  0  0  0  0  0  0  0
   -1.5426    4.4302    0.0000 F   0  0  0  0  0  0  0  0  0  0  0  0
   -0.2010    3.3481    0.0000 C   0  0  0  0  0  0  0  0  0  0  0  0
    1.0981    4.0981    0.0000 F   0  0  0  0  0  0  0  0  0  0  0  0
   -0.5470    4.1634    0.0000 F   0  0  0  0  0  0  0  0  0  0  0  0
    0.8411    2.2691    0.0000 F   0  0  0  0  0  0  0  0  0  0  0  0
   -1.5000    0.0000    0.0000 C   0  0  0  0  0  0  0  0  0  0  0  0
   -0.7500   -1.2990    0.0000 C   0  0  0  0  0  0  0  0  0  0  0  0
   -1.5000   -2.5981    0.0000 C   0  0  0  0  0  0  0  0  0  0  0  0
   -2.2500   -3.8971    0.0000 F   0  0  0  0  0  0  0  0  0  0  0  0
   -2.7990   -1.8481    0.0000 F   0  0  0  0  0  0  0  0  0  0  0  0
   -0.2010   -3.3481    0.0000 F   0  0  0  0  0  0  0  0  0  0  0  0
    3.7500   -3.8971    0.0000 C   0  0  0  0  0  0  0  0  0  0  0  0
    3.0000   -5.1962    0.0000 C   0  0  0  0  0  0  0  0  0  0  0  0
    3.7500   -6.4952    0.0000 C   0  0  0  0  0  0  0  0  0  0  0  0
    5.2500   -6.4952    0.0000 C   0  0  0  0  0  0  0  0  0  0  0  0
    6.0000   -5.1962    0.0000 C   0  0  0  0  0  0  0  0  0  0  0  0
    7.5000   -5.1962    0.0000 N   0  0  0  0  0  0  0  0  0  0  0  0
    8.2500   -3.8971    0.0000 O   0  0  0  0  0  0  0  0  0  0  0  0
    8.2500   -6.4952    0.0000 O   0  0  0  0  0  0  0  0  0  0  0  0
    5.2500   -3.8971    0.0000 C   0  0  0  0  0  0  0  0  0  0  0  0
    6.0000   -2.5981    0.0000 F   0  0  0  0  0  0  0  0  0  0  0  0
  1  2  2  0
  2  3  1  0
  3  4  1  0
  4  5  2  0
  5  6  1  0
  5  7  1  0
  7  8  2  0
  8  9  1  0
  9 10  1  0
  9 11  1  0
 11 12  1  0
 11 13  1  0
 11 14  1  0
  9 15  1  0
 15 16  1  0
 15 17  1  0
 15 18  1  0
  8 19  1  0
 19 20  2  0
 20 21  1  0
 21 22  1  0
 21 23  1  0
 21 24  1  0
  2 25  1  0
 25 26  2  0
 26 27  1  0
 27 28  2  0
 28 29  1  0
 29 30  1  0
 30 31  2  0
 30 32  1  0
 29 33  2  0
 33 34  1  0
 20  4  1  0
 33 25  1  0
M  CHG  2  30   1  32  -1
M  END
$$$$

     RDKit          2D

 43 42  0  0  0  0  0  0  0  0999 V2000
    0.0000    0.0000    0.0000 C   0  0  0  0  0  0  0  0  0  0  0  0
    1.2990    0.7500    0.0000 C   0  0  0  0  0  0  0  0  0  0  0  0
    2.5981   -0.0000    0.0000 C   0  0  0  0  0  0  0  0  0  0  0  0
    3.8971    0.7500    0.0000 C   0  0  0  0  0  0  0  0  0  0  0  0
    5.1962   -0.0000    0.0000 C   0  0  0  0  0  0  0  0  0  0  0  0
    6.4952    0.7500    0.0000 C   0  0  0  0  0  0  0  0  0  0  0  0
    7.7942   -0.0000    0.0000 C   0  0  0  0  0  0  0  0  0  0  0  0
    9.0933    0.7500    0.0000 C   0  0  0  0  0  0  0  0  0  0  0  0
   10.3923   -0.0000    0.0000 C   0  0  0  0  0  0  0  0  0  0  0  0
   11.6913    0.7500    0.0000 C   0  0  0  0  0  0  0  0  0  0  0  0
   12.9904   -0.0000    0.0000 C   0  0  0  0  0  0  0  0  0  0  0  0
   14.2894    0.7500    0.0000 C   0  0  0  0  0  0  0  0  0  0  0  0
   15.0394   -0.5490    0.0000 F   0  0  0  0  0  0  0  0  0  0  0  0
   13.5394    2.0490    0.0000 F   0  0  0  0  0  0  0  0  0  0  0  0
   15.5885    1.5000    0.0000 C   0  0  0  0  0  0  0  0  0  0  0  0
   14.8385    2.7990    0.0000 F   0  0  0  0  0  0  0  0  0  0  0  0
   16.3385    0.2010    0.0000 F   0  0  0  0  0  0  0  0  0  0  0  0
   16.8875    2.2500    0.0000 C   0  0  0  0  0  0  0  0  0  0  0  0
   17.6375    0.9510    0.0000 F   0  0  0  0  0  0  0  0  0  0  0  0
   16.1375    3.5490    0.0000 F   0  0  0  0  0  0  0  0  0  0  0  0
   18.1865    3.0000    0.0000 C   0  0  0  0  0  0  0  0  0  0  0  0
   17.4365    4.2990    0.0000 F   0  0  0  0  0  0  0  0  0  0  0  0
   18.9365    1.7010    0.0000 F   0  0  0  0  0  0  0  0  0  0  0  0
   19.4856    3.7500    0.0000 C   0  0  0  0  0  0  0  0  0  0  0  0
   20.2356    2.4510    0.0000 F   0  0  0  0  0  0  0  0  0  0  0  0
   18.7356    5.0490    0.0000 F   0  0  0  0  0  0  0  0  0  0  0  0
   20.7846    4.5000    0.0000 C   0  0  0  0  0  0  0  0  0  0  0  0
   22.0836    5.2500    0.0000 F   0  0  0  0  0  0  0  0  0  0  0  0
   20.0346    5.7990    0.0000 F   0  0  0  0  0  0  0  0  0  0  0  0
   21.5346    3.2010    0.0000 F   0  0  0  0  0  0  0  0  0  0  0  0
   10.3923   -1.5000    0.0000 C   0  0  0  0  0  0  0  0  0  0  0  0
   10.3923   -3.0000    0.0000 O   0  0  0  0  0  0  0  0  0  0  0  0
    9.0933   -3.7500    0.0000 C   0  0  0  0  0  0  0  0  0  0  0  0
    7.6514   -3.3366    0.0000 C   0  0  0  0  0  0  0  0  0  0  0  0
    9.0933   -5.2500    0.0000 C   0  0  0  0  0  0  0  0  0  0  0  0
   11.8923   -1.5000    0.0000 O   0  0  0  0  0  0  0  0  0  0  0  0
   12.6423   -2.7990    0.0000 C   0  0  0  0  0  0  0  0  0  0  0  0
   14.1423   -2.7990    0.0000 C   0  0  0  0  0  0  0  0  0  0  0  0
   11.8923   -4.0981    0.0000 C   0  0  0  0  0  0  0  0  0  0  0  0
    8.8923   -1.5000    0.0000 O   0  0  0  0  0  0  0  0  0  0  0  0
    8.1423   -2.7990    0.0000 C   0  0  0  0  0  0  0  0  0  0  0  0
    6.6423   -2.7990    0.0000 C   0  0  0  0  0  0  0  0  0  0  0  0
    8.5557   -4.2410    0.0000 C   0  0  0  0  0  0  0  0  0  0  0  0
  1  2  1  0
  2  3  1  0
  3  4  1  0
  4  5  1  0
  5  6  1  0
  6  7  1  0
  7  8  1  0
  8  9  1  0
  9 10  1  0
 10 11  1  0
 11 12  1  0
 12 13  1  0
 12 14  1  0
 12 15  1  0
 15 16  1  0
 15 17  1  0
 15 18  1  0
 18 19  1  0
 18 20  1  0
 18 21  1  0
 21 22  1  0
 21 23  1  0
 21 24  1  0
 24 25  1  0
 24 26  1  0
 24 27  1  0
 27 28  1  0
 27 29  1  0
 27 30  1  0
  9 31  1  0
 31 32  1  0
 32 33  1  0
 33 34  1  0
 33 35  1  0
 31 36  1  0
 36 37  1  0
 37 38  1  0
 37 39  1  0
 31 40  1  0
 40 41  1  0
 41 42  1  0
 41 43  1  0
M  END
$$$$

     RDKit          2D

 34 35  0  0  0  0  0  0  0  0999 V2000
    3.7500   -1.2990    0.0000 O   0  0  0  0  0  0  0  0  0  0  0  0
    3.0000   -2.5981    0.0000 C   0  0  0  0  0  0  0  0  0  0  0  0
    1.5000   -2.5981    0.0000 N   0  0  0  0  0  0  0  0  0  0  0  0
    0.7500   -1.2990    0.0000 C   0  0  0  0  0  0  0  0  0  0  0  0
    1.5000    0.0000    0.0000 C   0  0  0  0  0  0  0  0  0  0  0  0
    3.0000    0.0000    0.0000 Br  0  0  0  0  0  0  0  0  0  0  0  0
    0.7500    1.2990    0.0000 C   0  0  0  0  0  0  0  0  0  0  0  0
   -0.7500    1.2990    0.0000 C   0  0  0  0  0  0  0  0  0  0  0  0
   -1.5000    2.5981    0.0000 C   0  0  0  0  0  0  0  0  0  0  0  0
   -2.7990    1.8481    0.0000 F   0  0  0  0  0  0  0  0  0  0  0  0
   -2.2500    3.8971    0.0000 C   0  0  0  0  0  0  0  0  0  0  0  0
   -3.0000    5.1962    0.0000 F   0  0  0  0  0  0  0  0  0  0  0  0
   -3.5490    3.1471    0.0000 F   0  0  0  0  0  0  0  0  0  0  0  0
   -1.5426    4.4302    0.0000 F   0  0  0  0  0  0  0  0  0  0  0  0
   -0.2010    3.3481    0.0000 C   0  0  0  0  0  0  0  0  0  0  0  0
    1.0981    4.0981    0.0000 F   0  0  0  0  0  0  0  0  0  0  0  0
    0.8411    2.2691    0.0000 F   0  0  0  0  0  0  0  0  0  0  0  0
   -0.5470    4.1634    0.0000 F   0  0  0  0  0  0  0  0  0  0  0  0
   -1.5000    0.0000    0.0000 C   0  0  0  0  0  0  0  0  0  0  0  0
   -0.7500   -1.2990    0.0000 C   0  0  0  0  0  0  0  0  0  0  0  0
   -1.5000   -2.5981    0.0000 C   0  0  0  0  0  0  0  0  0  0  0  0
   -2.2500   -3.8971    0.0000 F   0  0  0  0  0  0  0  0  0  0  0  0
   -2.7990   -1.8481    0.0000 F   0  0  0  0  0  0  0  0  0  0  0  0
   -0.2010   -3.3481    0.0000 F   0  0  0  0  0  0  0  0  0  0  0  0
    3.7500   -3.8971    0.0000 C   0  0  0  0  0  0  0  0  0  0  0  0
    3.0000   -5.1962    0.0000 C   0  0  0  0  0  0  0  0  0  0  0  0
    3.7500   -6.4952    0.0000 C   0  0  0  0  0  0  0  0  0  0  0  0
    5.2500   -6.4952    0.0000 C   0  0  0  0  0  0  0  0  0  0  0  0
    6.0000   -7.7942    0.0000 F   0  0  0  0  0  0  0  0  0  0  0  0
    6.0000   -5.1962    0.0000 C   0  0  0  0  0  0  0  0  0  0  0  0
    7.5000   -5.1962    0.0000 N   0  0  0  0  0  0  0  0  0  0  0  0
    8.2500   -6.4952    0.0000 O   0  0  0  0  0  0  0  0  0  0  0  0
    8.2500   -3.8971    0.0000 O   0  0  0  0  0  0  0  0  0  0  0  0
    5.2500   -3.8971    0.0000 C   0  0  0  0  0  0  0  0  0  0  0  0
  1  2  2  0
  2  3  1  0
  3  4  1  0
  4  5  2  0
  5  6  1  0
  5  7  1  0
  7  8  2  0
  8  9  1  0
  9 10  1  0
  9 11  1  0
 11 12  1  0
 11 13  1  0
 11 14  1  0
  9 15  1  0
 15 16  1  0
 15 17  1  0
 15 18  1  0
  8 19  1  0
 19 20  2  0
 20 21  1  0
 21 22  1  0
 21 23  1  0
 21 24  1  0
  2 25  1  0
 25 26  2  0
 26 27  1  0
 27 28  2  0
 28 29  1  0
 28 30  1  0
 30 31  1  0
 31 32  2  0
 31 33  1  0
 30 34  2  0
 20  4  1  0
 34 25  1  0
M  CHG  2  31   1  33  -1
M  END
$$$$

     RDKit          2D

 21 20  0  0  0  0  0  0  0  0999 V2000
   -5.9462   -0.2010    0.0000 O   0  0  0  0  0  0  0  0  0  0  0  0
   -4.6471    0.5490    0.0000 S   0  0  0  0  0  0  0  0  0  0  0  0
   -4.0105    1.0288    0.0000 O   0  0  0  0  0  0  0  0  0  0  0  0
   -5.3971    1.8481    0.0000 O   0  0  0  0  0  0  0  0  0  0  0  0
   -3.8971   -0.7500    0.0000 C   0  0  0  0  0  0  0  0  0  0  0  0
   -5.1962   -1.5000    0.0000 F   0  0  0  0  0  0  0  0  0  0  0  0
   -3.1471   -2.0490    0.0000 F   0  0  0  0  0  0  0  0  0  0  0  0
   -2.5981    0.0000    0.0000 C   0  0  0  0  0  0  0  0  0  0  0  0
   -2.9441    0.8153    0.0000 F   0  0  0  0  0  0  0  0  0  0  0  0
   -1.8481   -1.2990    0.0000 F   0  0  0  0  0  0  0  0  0  0  0  0
   -1.2990    0.7500    0.0000 C   0  0  0  0  0  0  0  0  0  0  0  0
   -1.2990    2.2500    0.0000 F   0  0  0  0  0  0  0  0  0  0  0  0
    0.0000    0.0000    0.0000 C   0  0  0  0  0  0  0  0  0  0  0  0
    1.2990    0.7500    0.0000 C   0  0  0  0  0  0  0  0  0  0  0  0
    2.5981   -0.0000    0.0000 C   0  0  0  0  0  0  0  0  0  0  0  0
    3.8971    0.7500    0.0000 C   0  0  0  0  0  0  0  0  0  0  0  0
    5.1962   -0.0000    0.0000 C   0  0  0  0  0  0  0  0  0  0  0  0
    6.4952    0.7500    0.0000 C   0  0  0  0  0  0  0  0  0  0  0  0
    7.7942    1.5000    0.0000 F   0  0  0  0  0  0  0  0  0  0  0  0
    7.2452   -0.5490    0.0000 F   0  0  0  0  0  0  0  0  0  0  0  0
    5.7452    2.0490    0.0000 F   0  0  0  0  0  0  0  0  0  0  0  0
  1  2  2  0
  2  3  2  0
  2  4  1  0
  2  5  1  0
  5  6  1  0
  5  7  1  0
  5  8  1  0
  8  9  1  0
  8 10  1  0
  8 11  1  0
 11 12  1  0
 11 13  1  0
 13 14  1  0
 14 15  1  0
 15 16  1  0
 16 17  1  0
 17 18  1  0
 18 19  1  0
 18 20  1  0
 18 21  1  0
M  CHG  1   4  -1
M  END
$$$$

     RDKit          2D

 21 20  0  0  0  0  0  0  0  0999 V2000
   -7.2452   -0.9510    0.0000 O   0  0  0  0  0  0  0  0  0  0  0  0
   -5.9462   -0.2010    0.0000 S   0  0  0  0  0  0  0  0  0  0  0  0
   -5.3095    0.2788    0.0000 O   0  0  0  0  0  0  0  0  0  0  0  0
   -6.6962    1.0981    0.0000 O   0  0  0  0  0  0  0  0  0  0  0  0
   -5.1962   -1.5000    0.0000 C   0  0  0  0  0  0  0  0  0  0  0  0
   -6.4952   -2.2500    0.0000 F   0  0  0  0  0  0  0  0  0  0  0  0
   -4.4462   -2.7990    0.0000 F   0  0  0  0  0  0  0  0  0  0  0  0
   -3.8971   -0.7500    0.0000 C   0  0  0  0  0  0  0  0  0  0  0  0
   -3.1471   -2.0490    0.0000 F   0  0  0  0  0  0  0  0  0  0  0  0
   -4.2432    0.0653    0.0000 F   0  0  0  0  0  0  0  0  0  0  0  0
   -2.5981    0.0000    0.0000 C   0  0  0  0  0  0  0  0  0  0  0  0
   -3.3481    1.2990    0.0000 F   0  0  0  0  0  0  0  0  0  0  0  0
   -1.8481   -1.2990    0.0000 F   0  0  0  0  0  0  0  0  0  0  0  0
   -1.2990    0.7500    0.0000 C   0  0  0  0  0  0  0  0  0  0  0  0
   -1.2990    2.2500    0.0000 F   0  0  0  0  0  0  0  0  0  0  0  0
    0.0000    0.0000    0.0000 C   0  0  0  0  0  0  0  0  0  0  0  0
    1.2990    0.7500    0.0000 C   0  0  0  0  0  0  0  0  0  0  0  0
    2.5981   -0.0000    0.0000 C   0  0  0  0  0  0  0  0  0  0  0  0
    3.8971   -0.7500    0.0000 F   0  0  0  0  0  0  0  0  0  0  0  0
    3.3481    1.2990    0.0000 F   0  0  0  0  0  0  0  0  0  0  0  0
    1.8481   -1.2990    0.0000 F   0  0  0  0  0  0  0  0  0  0  0  0
  1  2  2  0
  2  3  2  0
  2  4  1  0
  2  5  1  0
  5  6  1  0
  5  7  1  0
  5  8  1  0
  8  9  1  0
  8 10  1  0
  8 11  1  0
 11 12  1  0
 11 13  1  0
 11 14  1  0
 14 15  1  0
 14 16  1  0
 16 17  1  0
 17 18  1  0
 18 19  1  0
 18 20  1  0
 18 21  1  0
M  CHG  1   4  -1
M  END
$$$$

     RDKit          2D

 20 19  0  0  0  0  0  0  0  0999 V2000
    0.0000    0.0000    0.0000 C   0  0  0  0  0  0  0  0  0  0  0  0
    1.2990    0.7500    0.0000 C   0  0  0  0  0  0  0  0  0  0  0  0
    2.5981   -0.0000    0.0000 C   0  0  0  0  0  0  0  0  0  0  0  0
    3.8971    0.7500    0.0000 O   0  0  0  0  0  0  0  0  0  0  0  0
    5.1962   -0.0000    0.0000 C   0  0  0  0  0  0  0  0  0  0  0  0
    4.4462   -1.2990    0.0000 F   0  0  0  0  0  0  0  0  0  0  0  0
    5.9462    1.2990    0.0000 F   0  0  0  0  0  0  0  0  0  0  0  0
    6.4952   -0.7500    0.0000 C   0  0  0  0  0  0  0  0  0  0  0  0
    6.8413    0.0653    0.0000 F   0  0  0  0  0  0  0  0  0  0  0  0
    5.7452   -2.0490    0.0000 F   0  0  0  0  0  0  0  0  0  0  0  0
    7.7942   -1.5000    0.0000 C   0  0  0  0  0  0  0  0  0  0  0  0
    7.0442   -2.7990    0.0000 F   0  0  0  0  0  0  0  0  0  0  0  0
    9.0933   -2.2500    0.0000 C   0  0  0  0  0  0  0  0  0  0  0  0
   10.3923   -3.0000    0.0000 F   0  0  0  0  0  0  0  0  0  0  0  0
    8.3433   -3.5490    0.0000 F   0  0  0  0  0  0  0  0  0  0  0  0
    9.6263   -1.5426    0.0000 F   0  0  0  0  0  0  0  0  0  0  0  0
    8.5442   -0.2010    0.0000 C   0  0  0  0  0  0  0  0  0  0  0  0
    9.2942    1.0981    0.0000 F   0  0  0  0  0  0  0  0  0  0  0  0
    9.3596   -0.5470    0.0000 F   0  0  0  0  0  0  0  0  0  0  0  0
    7.8369    0.3321    0.0000 F   0  0  0  0  0  0  0  0  0  0  0  0
  1  2  1  0
  2  3  1  0
  3  4  1  0
  4  5  1  0
  5  6  1  0
  5  7  1  0
  5  8  1  0
  8  9  1  0
  8 10  1  0
  8 11  1  0
 11 12  1  0
 11 13  1  0
 13 14  1  0
 13 15  1  0
 13 16  1  0
 11 17  1  0
 17 18  1  0
 17 19  1  0
 17 20  1  0
M  END
$$$$

     RDKit          2D

 12 12  0  0  0  0  0  0  0  0999 V2000
    2.3907    1.0037    0.0000 O   0  0  0  0  0  0  0  0  0  0  0  0
    1.2760    0.0000    0.0000 S   0  0  0  0  0  0  0  0  0  0  0  0
    2.3907   -1.0037    0.0000 O   0  0  0  0  0  0  0  0  0  0  0  0
    0.3943    1.2135    0.0000 C   0  0  0  0  0  0  0  0  0  0  0  0
   -1.0323    0.7500    0.0000 C   0  0  0  0  0  0  0  0  0  0  0  0
   -2.5241    0.5932    0.0000 F   0  0  0  0  0  0  0  0  0  0  0  0
   -1.3442    2.2172    0.0000 F   0  0  0  0  0  0  0  0  0  0  0  0
   -1.0323   -0.7500    0.0000 C   0  0  0  0  0  0  0  0  0  0  0  0
   -1.3442   -2.2172    0.0000 F   0  0  0  0  0  0  0  0  0  0  0  0
   -2.5241   -0.5932    0.0000 F   0  0  0  0  0  0  0  0  0  0  0  0
    0.3943   -1.2135    0.0000 C   0  0  0  0  0  0  0  0  0  0  0  0
    0.8578   -2.6401    0.0000 F   0  0  0  0  0  0  0  0  0  0  0  0
  1  2  2  0
  2  3  2  0
  2  4  1  0
  4  5  1  0
  5  6  1  0
  5  7  1  0
  5  8  1  0
  8  9  1  0
  8 10  1  0
  8 11  1  0
 11 12  1  0
 11  2  1  0
M  END
$$$$

     RDKit          2D

 12 11  0  0  0  0  0  0  0  0999 V2000
    0.0000    0.0000    0.0000 C   0  0  0  0  0  0  0  0  0  0  0  0
    1.2990    0.7500    0.0000 S   0  0  0  0  0  0  0  0  0  0  0  0
    2.5981   -0.0000    0.0000 C   0  0  0  0  0  0  0  0  0  0  0  0
    1.8481   -1.2990    0.0000 F   0  0  0  0  0  0  0  0  0  0  0  0
    3.8971   -0.7500    0.0000 F   0  0  0  0  0  0  0  0  0  0  0  0
    3.3481    1.2990    0.0000 C   0  0  0  0  0  0  0  0  0  0  0  0
    2.0490    2.0490    0.0000 F   0  0  0  0  0  0  0  0  0  0  0  0
    4.6471    0.5490    0.0000 F   0  0  0  0  0  0  0  0  0  0  0  0
    4.0981    2.5981    0.0000 C   0  0  0  0  0  0  0  0  0  0  0  0
    4.8481    3.8971    0.0000 F   0  0  0  0  0  0  0  0  0  0  0  0
    2.7990    3.3481    0.0000 F   0  0  0  0  0  0  0  0  0  0  0  0
    5.3971    1.8481    0.0000 F   0  0  0  0  0  0  0  0  0  0  0  0
  1  2  1  0
  2  3  1  0
  3  4  1  0
  3  5  1  0
  3  6  1  0
  6  7  1  0
  6  8  1  0
  6  9  1  0
  9 10  1  0
  9 11  1  0
  9 12  1  0
M  END
$$$$

     RDKit          2D

 32 31  0  0  0  0  0  0  0  0999 V2000
    0.0000    0.0000    0.0000 C   0  0  0  0  0  0  0  0  0  0  0  0
    1.2990    0.7500    0.0000 C   0  0  0  0  0  0  0  0  0  0  0  0
    2.5981   -0.0000    0.0000 C   0  0  0  0  0  0  0  0  0  0  0  0
    1.2990    2.2500    0.0000 C   0  0  0  0  0  0  0  0  0  0  0  0
    0.0000    3.0000    0.0000 O   0  0  0  0  0  0  0  0  0  0  0  0
    2.5981    3.0000    0.0000 O   0  0  0  0  0  0  0  0  0  0  0  0
    2.5981    4.5000    0.0000 C   0  0  0  0  0  0  0  0  0  0  0  0
    3.8971    5.2500    0.0000 C   0  0  0  0  0  0  0  0  0  0  0  0
    3.8971    6.7500    0.0000 C   0  0  0  0  0  0  0  0  0  0  0  0
    5.3971    6.7500    0.0000 F   0  0  0  0  0  0  0  0  0  0  0  0
    2.3971    6.7500    0.0000 F   0  0  0  0  0  0  0  0  0  0  0  0
    3.8971    8.2500    0.0000 C   0  0  0  0  0  0  0  0  0  0  0  0
    2.3971    8.2500    0.0000 F   0  0  0  0  0  0  0  0  0  0  0  0
    5.3971    8.2500    0.0000 F   0  0  0  0  0  0  0  0  0  0  0  0
    3.8971    9.7500    0.0000 C   0  0  0  0  0  0  0  0  0  0  0  0
    5.3971    9.7500    0.0000 F   0  0  0  0  0  0  0  0  0  0  0  0
    2.3971    9.7500    0.0000 F   0  0  0  0  0  0  0  0  0  0  0  0
    3.8971   11.2500    0.0000 C   0  0  0  0  0  0  0  0  0  0  0  0
    2.3971   11.2500    0.0000 F   0  0  0  0  0  0  0  0  0  0  0  0
    5.3971   11.2500    0.0000 F   0  0  0  0  0  0  0  0  0  0  0  0
    3.8971   12.7500    0.0000 C   0  0  0  0  0  0  0  0  0  0  0  0
    2.3971   12.7500    0.0000 F   0  0  0  0  0  0  0  0  0  0  0  0
    5.3971   12.7500    0.0000 F   0  0  0  0  0  0  0  0  0  0  0  0
    3.8971   14.2500    0.0000 C   0  0  0  0  0  0  0  0  0  0  0  0
    5.3971   14.2500    0.0000 F   0  0  0  0  0  0  0  0  0  0  0  0
    2.3971   14.2500    0.0000 F   0  0  0  0  0  0  0  0  0  0  0  0
    3.8971   15.7500    0.0000 C   0  0  0  0  0  0  0  0  0  0  0  0
    2.3971   15.7500    0.0000 F   0  0  0  0  0  0  0  0  0  0  0  0
    5.3971   15.7500    0.0000 F   0  0  0  0  0  0  0  0  0  0  0  0
    3.8971   17.2500    0.0000 C   0  0  0  0  0  0  0  0  0  0  0  0
    2.5981   18.0000    0.0000 F   0  0  0  0  0  0  0  0  0  0  0  0
    5.1962   18.0000    0.0000 F   0  0  0  0  0  0  0  0  0  0  0  0
  1  2  2  0
  2  3  1  0
  2  4  1  0
  4  5  2  0
  4  6  1  0
  6  7  1  0
  7  8  1  0
  8  9  1  0
  9 10  1  0
  9 11  1  0
  9 12  1  0
 12 13  1  0
 12 14  1  0
 12 15  1  0
 15 16  1  0
 15 17  1  0
 15 18  1  0
 18 19  1  0
 18 20  1  0
 18 21  1  0
 21 22  1  0
 21 23  1  0
 21 24  1  0
 24 25  1  0
 24 26  1  0
 24 27  1  0
 27 28  1  0
 27 29  1  0
 27 30  1  0
 30 31  1  0
 30 32  1  0
M  END
$$$$

     RDKit          2D

 31 32  0  0  0  0  0  0  0  0999 V2000
    3.0000    0.0000    0.0000 C   0  0  0  0  0  0  0  0  0  0  0  0
    1.5000    0.0000    0.0000 C   0  0  0  0  0  0  0  0  0  0  0  0
    0.7500   -1.2990    0.0000 C   0  0  0  0  0  0  0  0  0  0  0  0
   -0.7500   -1.2990    0.0000 C   0  0  0  0  0  0  0  0  0  0  0  0
   -1.5000   -2.5981    0.0000 C   0  0  0  0  0  0  0  0  0  0  0  0
   -0.2010   -3.3481    0.0000 F   0  0  0  0  0  0  0  0  0  0  0  0
   -2.2500   -3.8971    0.0000 C   0  0  0  0  0  0  0  0  0  0  0  0
   -3.0000   -5.1962    0.0000 F   0  0  0  0  0  0  0  0  0  0  0  0
   -0.9510   -4.6471    0.0000 F   0  0  0  0  0  0  0  0  0  0  0  0
   -3.0653   -3.5511    0.0000 F   0  0  0  0  0  0  0  0  0  0  0  0
   -2.7990   -1.8481    0.0000 C   0  0  0  0  0  0  0  0  0  0  0  0
   -4.0981   -1.0981    0.0000 F   0  0  0  0  0  0  0  0  0  0  0  0
   -3.3321   -2.5554    0.0000 F   0  0  0  0  0  0  0  0  0  0  0  0
   -2.3857   -0.4062    0.0000 F   0  0  0  0  0  0  0  0  0  0  0  0
   -1.5000    0.0000    0.0000 C   0  0  0  0  0  0  0  0  0  0  0  0
   -0.7500    1.2990    0.0000 C   0  0  0  0  0  0  0  0  0  0  0  0
   -1.5000    2.5981    0.0000 C   0  0  0  0  0  0  0  0  0  0  0  0
    0.7500    1.2990    0.0000 C   0  0  0  0  0  0  0  0  0  0  0  0
    1.5000    2.5981    0.0000 N   0  0  0  0  0  0  0  0  0  0  0  0
    3.0000    2.5981    0.0000 C   0  0  0  0  0  0  0  0  0  0  0  0
    3.7500    1.2990    0.0000 O   0  0  0  0  0  0  0  0  0  0  0  0
    3.7500    3.8971    0.0000 C   0  0  0  0  0  0  0  0  0  0  0  0
    5.2500    3.8971    0.0000 C   0  0  0  0  0  0  0  0  0  0  0  0
    6.0000    5.1962    0.0000 C   0  0  0  0  0  0  0  0  0  0  0  0
    5.2500    6.4952    0.0000 C   0  0  0  0  0  0  0  0  0  0  0  0
    6.0000    7.7942    0.0000 F   0  0  0  0  0  0  0  0  0  0  0  0
    3.7500    6.4952    0.0000 C   0  0  0  0  0  0  0  0  0  0  0  0
    3.0000    7.7942    0.0000 N   0  0  0  0  0  0  0  0  0  0  0  0
    3.7500    9.0933    0.0000 O   0  0  0  0  0  0  0  0  0  0  0  0
    1.5000    7.7942    0.0000 O   0  0  0  0  0  0  0  0  0  0  0  0
    3.0000    5.1962    0.0000 C   0  0  0  0  0  0  0  0  0  0  0  0
  1  2  1  0
  2  3  2  0
  3  4  1  0
  4  5  1  0
  5  6  1  0
  5  7  1  0
  7  8  1  0
  7  9  1  0
  7 10  1  0
  5 11  1  0
 11 12  1  0
 11 13  1  0
 11 14  1  0
  4 15  2  0
 15 16  1  0
 16 17  1  0
 16 18  2  0
 18 19  1  0
 19 20  1  0
 20 21  2  0
 20 22  1  0
 22 23  2  0
 23 24  1  0
 24 25  2  0
 25 26  1  0
 25 27  1  0
 27 28  1  0
 28 29  2  0
 28 30  1  0
 27 31  2  0
 18  2  1  0
 31 22  1  0
M  CHG  2  28   1  30  -1
M  END
$$$$

     RDKit          2D

 13 12  0  0  0  0  0  0  0  0999 V2000
    0.0000    0.0000    0.0000 C   0  0  0  0  0  0  0  0  0  0  0  0
    1.2990    0.7500    0.0000 C   0  0  0  0  0  0  0  0  0  0  0  0
    1.2990    2.2500    0.0000 S   0  0  0  0  0  0  0  0  0  0  0  0
    2.5981   -0.0000    0.0000 O   0  0  0  0  0  0  0  0  0  0  0  0
    3.8971    0.7500    0.0000 C   0  0  0  0  0  0  0  0  0  0  0  0
    5.1962   -0.0000    0.0000 C   0  0  0  0  0  0  0  0  0  0  0  0
    6.4952    0.7500    0.0000 C   0  0  0  0  0  0  0  0  0  0  0  0
    7.2452   -0.5490    0.0000 F   0  0  0  0  0  0  0  0  0  0  0  0
    5.7452    2.0490    0.0000 F   0  0  0  0  0  0  0  0  0  0  0  0
    7.7942    1.5000    0.0000 C   0  0  0  0  0  0  0  0  0  0  0  0
    9.0933    2.2500    0.0000 F   0  0  0  0  0  0  0  0  0  0  0  0
    7.0442    2.7990    0.0000 F   0  0  0  0  0  0  0  0  0  0  0  0
    8.5442    0.2010    0.0000 F   0  0  0  0  0  0  0  0  0  0  0  0
  1  2  1  0
  2  3  2  0
  2  4  1  0
  4  5  1  0
  5  6  1  0
  6  7  1  0
  7  8  1  0
  7  9  1  0
  7 10  1  0
 10 11  1  0
 10 12  1  0
 10 13  1  0
M  END
$$$$

     RDKit          2D

 45 47  0  0  0  0  0  0  0  0999 V2000
    3.0000   -5.1962    0.0000 O   0  0  0  0  0  0  0  0  0  0  0  0
    1.5000   -5.1962    0.0000 C   0  0  0  0  0  0  0  0  0  0  0  0
    0.7500   -3.8971    0.0000 C   0  0  0  0  0  0  0  0  0  0  0  0
    1.5000   -2.5981    0.0000 C   0  0  0  0  0  0  0  0  0  0  0  0
    0.7500   -1.2990    0.0000 C   0  0  0  0  0  0  0  0  0  0  0  0
    1.5000    0.0000    0.0000 C   0  0  0  0  0  0  0  0  0  0  0  0
    0.7500    1.2990    0.0000 C   0  0  0  0  0  0  0  0  0  0  0  0
   -0.7500    1.2990    0.0000 C   0  0  0  0  0  0  0  0  0  0  0  0
   -1.5000    2.5981    0.0000 O   0  0  0  0  0  0  0  0  0  0  0  0
   -0.7500    3.8971    0.0000 C   0  0  0  0  0  0  0  0  0  0  0  0
    0.7500    3.8971    0.0000 O   0  0  0  0  0  0  0  0  0  0  0  0
   -1.5000    5.1962    0.0000 C   0  0  0  0  0  0  0  0  0  0  0  0
   -0.7500    6.4952    0.0000 C   0  0  0  0  0  0  0  0  0  0  0  0
   -1.5000    7.7942    0.0000 C   0  0  0  0  0  0  0  0  0  0  0  0
   -3.0000    7.7942    0.0000 C   0  0  0  0  0  0  0  0  0  0  0  0
   -3.7500    9.0933    0.0000 O   0  0  0  0  0  0  0  0  0  0  0  0
   -3.0000   10.3923    0.0000 C   0  0  0  0  0  0  0  0  0  0  0  0
   -3.7500   11.6913    0.0000 C   0  0  0  0  0  0  0  0  0  0  0  0
   -3.0000   12.9904    0.0000 C   0  0  0  0  0  0  0  0  0  0  0  0
   -3.7500   14.2894    0.0000 C   0  0  0  0  0  0  0  0  0  0  0  0
   -2.4510   15.0394    0.0000 F   0  0  0  0  0  0  0  0  0  0  0  0
   -5.0490   13.5394    0.0000 F   0  0  0  0  0  0  0  0  0  0  0  0
   -4.5000   15.5885    0.0000 C   0  0  0  0  0  0  0  0  0  0  0  0
   -5.2500   16.8875    0.0000 F   0  0  0  0  0  0  0  0  0  0  0  0
   -5.7990   14.8385    0.0000 F   0  0  0  0  0  0  0  0  0  0  0  0
   -3.2010   16.3385    0.0000 F   0  0  0  0  0  0  0  0  0  0  0  0
   -3.7500    6.4952    0.0000 C   0  0  0  0  0  0  0  0  0  0  0  0
   -3.0000    5.1962    0.0000 C   0  0  0  0  0  0  0  0  0  0  0  0
   -1.5000    0.0000    0.0000 C   0  0  0  0  0  0  0  0  0  0  0  0
   -0.7500   -1.2990    0.0000 C   0  0  0  0  0  0  0  0  0  0  0  0
    0.7500   -6.4952    0.0000 O   0  0  0  0  0  0  0  0  0  0  0  0
    1.5000   -7.7942    0.0000 C   0  0  0  0  0  0  0  0  0  0  0  0
    0.7500   -9.0933    0.0000 C   0  0  0  0  0  0  0  0  0  0  0  0
    1.5000  -10.3923    0.0000 C   0  0  0  0  0  0  0  0  0  0  0  0
    0.7500  -11.6913    0.0000 C   0  0  0  0  0  0  0  0  0  0  0  0
    1.5000  -12.9904    0.0000 C   0  0  0  0  0  0  0  0  0  0  0  0
    3.0000  -12.9904    0.0000 C   0  0  0  0  0  0  0  0  0  0  0  0
    3.7500  -14.2894    0.0000 N   0  0  0  0  0  0  0  0  0  0  0  0
    5.2500  -14.2894    0.0000 O   0  0  0  0  0  0  0  0  0  0  0  0
    3.0000  -15.5885    0.0000 O   0  0  0  0  0  0  0  0  0  0  0  0
    3.7500  -11.6913    0.0000 C   0  0  0  0  0  0  0  0  0  0  0  0
    3.0000  -10.3923    0.0000 C   0  0  0  0  0  0  0  0  0  0  0  0
    3.7500   -9.0933    0.0000 N   0  0  0  0  0  0  0  0  0  0  0  0
    3.0000   -7.7942    0.0000 O   0  0  0  0  0  0  0  0  0  0  0  0
    5.2500   -9.0933    0.0000 O   0  0  0  0  0  0  0  0  0  0  0  0
  1  2  2  0
  2  3  1  0
  3  4  2  0
  4  5  1  0
  5  6  2  0
  6  7  1  0
  7  8  2  0
  8  9  1  0
  9 10  1  0
 10 11  2  0
 10 12  1  0
 12 13  2  0
 13 14  1  0
 14 15  2  0
 15 16  1  0
 16 17  1  0
 17 18  1  0
 18 19  1  0
 19 20  1  0
 20 21  1  0
 20 22  1  0
 20 23  1  0
 23 24  1  0
 23 25  1  0
 23 26  1  0
 15 27  1  0
 27 28  2  0
  8 29  1  0
 29 30  2  0
  2 31  1  0
 31 32  1  0
 32 33  1  0
 33 34  1  0
 34 35  2  0
 35 36  1  0
 36 37  2  0
 37 38  1  0
 38 39  2  0
 38 40  1  0
 37 41  1  0
 41 42  2  0
 42 43  1  0
 43 44  2  0
 43 45  1  0
 30  5  1  0
 42 34  1  0
 28 12  1  0
M  CHG  4  38   1  40  -1  43   1  45  -1
M  END
$$$$

     RDKit          2D

 33 35  0  0  0  0  0  0  0  0999 V2000
    3.0000    0.0000    0.0000 C   0  0  0  0  0  0  0  0  0  0  0  0
    1.5000    0.0000    0.0000 C   0  0  0  0  0  0  0  0  0  0  0  0
    0.7500   -1.2990    0.0000 C   0  0  0  0  0  0  0  0  0  0  0  0
   -0.7500   -1.2990    0.0000 C   0  0  0  0  0  0  0  0  0  0  0  0
   -1.5000   -2.5981    0.0000 C   0  0  0  0  0  0  0  0  0  0  0  0
   -0.2010   -3.3481    0.0000 F   0  0  0  0  0  0  0  0  0  0  0  0
   -2.2500   -3.8971    0.0000 C   0  0  0  0  0  0  0  0  0  0  0  0
   -3.0000   -5.1962    0.0000 F   0  0  0  0  0  0  0  0  0  0  0  0
   -0.9510   -4.6471    0.0000 F   0  0  0  0  0  0  0  0  0  0  0  0
   -3.0653   -3.5511    0.0000 F   0  0  0  0  0  0  0  0  0  0  0  0
   -2.7990   -1.8481    0.0000 C   0  0  0  0  0  0  0  0  0  0  0  0
   -4.0981   -1.0981    0.0000 F   0  0  0  0  0  0  0  0  0  0  0  0
   -3.3321   -2.5554    0.0000 F   0  0  0  0  0  0  0  0  0  0  0  0
   -2.3857   -0.4062    0.0000 F   0  0  0  0  0  0  0  0  0  0  0  0
   -1.5000    0.0000    0.0000 C   0  0  0  0  0  0  0  0  0  0  0  0
   -0.7500    1.2990    0.0000 C   0  0  0  0  0  0  0  0  0  0  0  0
   -1.5000    2.5981    0.0000 C   0  0  0  0  0  0  0  0  0  0  0  0
    0.7500    1.2990    0.0000 C   0  0  0  0  0  0  0  0  0  0  0  0
    1.5000    2.5981    0.0000 C   0  0  0  0  0  0  0  0  0  0  0  0
    0.8899    3.9684    0.0000 C   0  0  0  0  0  0  0  0  0  0  0  0
    2.0046    4.9721    0.0000 N   0  0  0  0  0  0  0  0  0  0  0  0
    3.3037    4.2221    0.0000 N   0  0  0  0  0  0  0  0  0  0  0  0
    4.6740    4.8322    0.0000 C   0  0  0  0  0  0  0  0  0  0  0  0
    5.8875    3.9505    0.0000 C   0  0  0  0  0  0  0  0  0  0  0  0
    7.2578    4.5606    0.0000 N   0  0  0  0  0  0  0  0  0  0  0  0
    7.4146    6.0524    0.0000 C   0  0  0  0  0  0  0  0  0  0  0  0
    8.7849    6.6625    0.0000 Cl  0  0  0  0  0  0  0  0  0  0  0  0
    6.2011    6.9341    0.0000 C   0  0  0  0  0  0  0  0  0  0  0  0
    6.3579    8.4259    0.0000 C   0  0  0  0  0  0  0  0  0  0  0  0
    7.7282    9.0360    0.0000 O   0  0  0  0  0  0  0  0  0  0  0  0
    5.1443    9.3075    0.0000 O   0  0  0  0  0  0  0  0  0  0  0  0
    4.8308    6.3240    0.0000 C   0  0  0  0  0  0  0  0  0  0  0  0
    2.9918    2.7549    0.0000 C   0  0  0  0  0  0  0  0  0  0  0  0
  1  2  1  0
  2  3  2  0
  3  4  1  0
  4  5  1  0
  5  6  1  0
  5  7  1  0
  7  8  1  0
  7  9  1  0
  7 10  1  0
  5 11  1  0
 11 12  1  0
 11 13  1  0
 11 14  1  0
  4 15  2  0
 15 16  1  0
 16 17  1  0
 16 18  2  0
 18 19  1  0
 19 20  1  0
 20 21  2  0
 21 22  1  0
 22 23  1  0
 23 24  2  0
 24 25  1  0
 25 26  2  0
 26 27  1  0
 26 28  1  0
 28 29  1  0
 29 30  2  0
 29 31  1  0
 28 32  2  0
 22 33  1  0
 18  2  1  0
 33 19  2  0
 32 23  1  0
M  END
$$$$

     RDKit          2D

 31 31  0  0  0  0  0  0  0  0999 V2000
    3.7500    1.2990    0.0000 O   0  0  0  0  0  0  0  0  0  0  0  0
    3.0000    0.0000    0.0000 C   0  0  0  0  0  0  0  0  0  0  0  0
    3.7500   -1.2990    0.0000 O   0  0  0  0  0  0  0  0  0  0  0  0
    1.5000    0.0000    0.0000 C   0  0  0  0  0  0  0  0  0  0  0  0
    0.7500   -1.2990    0.0000 C   0  0  0  0  0  0  0  0  0  0  0  0
   -0.7500   -1.2990    0.0000 C   0  0  0  0  0  0  0  0  0  0  0  0
   -1.5000   -2.5981    0.0000 Br  0  0  0  0  0  0  0  0  0  0  0  0
   -1.5000    0.0000    0.0000 C   0  0  0  0  0  0  0  0  0  0  0  0
   -3.0000    0.0000    0.0000 O   0  0  0  0  0  0  0  0  0  0  0  0
   -3.7500    1.2990    0.0000 C   0  0  0  0  0  0  0  0  0  0  0  0
   -3.0000    2.5981    0.0000 F   0  0  0  0  0  0  0  0  0  0  0  0
   -5.2500    1.2990    0.0000 C   0  0  0  0  0  0  0  0  0  0  0  0
   -6.0000   -0.0000    0.0000 F   0  0  0  0  0  0  0  0  0  0  0  0
   -6.0000    2.5981    0.0000 C   0  0  0  0  0  0  0  0  0  0  0  0
   -7.2990    1.8481    0.0000 F   0  0  0  0  0  0  0  0  0  0  0  0
   -4.7010    3.3481    0.0000 F   0  0  0  0  0  0  0  0  0  0  0  0
   -6.7500    3.8971    0.0000 C   0  0  0  0  0  0  0  0  0  0  0  0
   -5.4510    4.6471    0.0000 F   0  0  0  0  0  0  0  0  0  0  0  0
   -8.0490    3.1471    0.0000 F   0  0  0  0  0  0  0  0  0  0  0  0
   -7.5000    5.1962    0.0000 C   0  0  0  0  0  0  0  0  0  0  0  0
   -8.7990    4.4462    0.0000 F   0  0  0  0  0  0  0  0  0  0  0  0
   -6.2010    5.9462    0.0000 F   0  0  0  0  0  0  0  0  0  0  0  0
   -8.2500    6.4952    0.0000 C   0  0  0  0  0  0  0  0  0  0  0  0
   -9.0000    7.7942    0.0000 F   0  0  0  0  0  0  0  0  0  0  0  0
   -6.9510    7.2452    0.0000 F   0  0  0  0  0  0  0  0  0  0  0  0
   -9.5490    5.7452    0.0000 F   0  0  0  0  0  0  0  0  0  0  0  0
   -0.7500    1.2990    0.0000 C   0  0  0  0  0  0  0  0  0  0  0  0
    0.7500    1.2990    0.0000 C   0  0  0  0  0  0  0  0  0  0  0  0
    1.5000    2.5981    0.0000 C   0  0  0  0  0  0  0  0  0  0  0  0
    0.7500    3.8971    0.0000 O   0  0  0  0  0  0  0  0  0  0  0  0
    3.0000    2.5981    0.0000 O   0  0  0  0  0  0  0  0  0  0  0  0
  1  2  2  0
  2  3  1  0
  2  4  1  0
  4  5  2  0
  5  6  1  0
  6  7  1  0
  6  8  2  0
  8  9  1  0
  9 10  1  0
 10 11  1  0
 10 12  2  3
 12 13  1  0
 12 14  1  0
 14 15  1  0
 14 16  1  0
 14 17  1  0
 17 18  1  0
 17 19  1  0
 17 20  1  0
 20 21  1  0
 20 22  1  0
 20 23  1  0
 23 24  1  0
 23 25  1  0
 23 26  1  0
  8 27  1  0
 27 28  2  0
 28 29  1  0
 29 30  2  0
 29 31  1  0
 28  4  1  0
M  END
$$$$

     RDKit          2D

 15 14  0  0  0  0  0  0  0  0999 V2000
    0.0000    0.0000    0.0000 C   0  0  0  0  0  0  0  0  0  0  0  0
    1.2990    0.7500    0.0000 C   0  0  0  0  0  0  0  0  0  0  0  0
    2.5981   -0.0000    0.0000 O   0  0  0  0  0  0  0  0  0  0  0  0
    3.8971    0.7500    0.0000 C   0  0  0  0  0  0  0  0  0  0  0  0
    3.1471    2.0490    0.0000 F   0  0  0  0  0  0  0  0  0  0  0  0
    4.6471   -0.5490    0.0000 F   0  0  0  0  0  0  0  0  0  0  0  0
    5.1962    1.5000    0.0000 C   0  0  0  0  0  0  0  0  0  0  0  0
    5.9462    0.2010    0.0000 F   0  0  0  0  0  0  0  0  0  0  0  0
    4.4462    2.7990    0.0000 F   0  0  0  0  0  0  0  0  0  0  0  0
    6.4952    2.2500    0.0000 C   0  0  0  0  0  0  0  0  0  0  0  0
    7.7942    1.5000    0.0000 C   0  0  0  0  0  0  0  0  0  0  0  0
    9.0933    2.2500    0.0000 C   0  0  0  0  0  0  0  0  0  0  0  0
   10.3923    3.0000    0.0000 F   0  0  0  0  0  0  0  0  0  0  0  0
    9.8433    0.9510    0.0000 F   0  0  0  0  0  0  0  0  0  0  0  0
    8.3433    3.5490    0.0000 F   0  0  0  0  0  0  0  0  0  0  0  0
  1  2  2  0
  2  3  1  0
  3  4  1  0
  4  5  1  0
  4  6  1  0
  4  7  1  0
  7  8  1  0
  7  9  1  0
  7 10  1  0
 10 11  1  0
 11 12  1  0
 12 13  1  0
 12 14  1  0
 12 15  1  0
M  END
$$$$

     RDKit          2D

 23 23  0  0  0  0  0  0  0  0999 V2000
    4.5000   -2.5981    0.0000 F   0  0  0  0  0  0  0  0  0  0  0  0
    3.7500   -1.2990    0.0000 C   0  0  0  0  0  0  0  0  0  0  0  0
    5.0490   -0.5490    0.0000 F   0  0  0  0  0  0  0  0  0  0  0  0
    2.4510   -2.0490    0.0000 F   0  0  0  0  0  0  0  0  0  0  0  0
    3.0000    0.0000    0.0000 O   0  0  0  0  0  0  0  0  0  0  0  0
    1.5000    0.0000    0.0000 C   0  0  0  0  0  0  0  0  0  0  0  0
    0.7500   -1.2990    0.0000 C   0  0  0  0  0  0  0  0  0  0  0  0
   -0.7500   -1.2990    0.0000 C   0  0  0  0  0  0  0  0  0  0  0  0
   -1.5000   -2.5981    0.0000 C   0  0  0  0  0  0  0  0  0  0  0  0
   -0.2010   -3.3481    0.0000 F   0  0  0  0  0  0  0  0  0  0  0  0
   -2.2500   -3.8971    0.0000 C   0  0  0  0  0  0  0  0  0  0  0  0
   -3.0000   -5.1962    0.0000 F   0  0  0  0  0  0  0  0  0  0  0  0
   -0.9510   -4.6471    0.0000 F   0  0  0  0  0  0  0  0  0  0  0  0
   -3.0653   -3.5511    0.0000 F   0  0  0  0  0  0  0  0  0  0  0  0
   -2.7990   -1.8481    0.0000 C   0  0  0  0  0  0  0  0  0  0  0  0
   -4.0981   -1.0981    0.0000 F   0  0  0  0  0  0  0  0  0  0  0  0
   -3.3321   -2.5554    0.0000 F   0  0  0  0  0  0  0  0  0  0  0  0
   -2.3857   -0.4062    0.0000 F   0  0  0  0  0  0  0  0  0  0  0  0
   -1.5000    0.0000    0.0000 C   0  0  0  0  0  0  0  0  0  0  0  0
   -0.7500    1.2990    0.0000 C   0  0  0  0  0  0  0  0  0  0  0  0
   -1.5000    2.5981    0.0000 Cl  0  0  0  0  0  0  0  0  0  0  0  0
    0.7500    1.2990    0.0000 C   0  0  0  0  0  0  0  0  0  0  0  0
    1.5000    2.5981    0.0000 Br  0  0  0  0  0  0  0  0  0  0  0  0
  1  2  1  0
  2  3  1  0
  2  4  1  0
  2  5  1  0
  5  6  1  0
  6  7  2  0
  7  8  1  0
  8  9  1  0
  9 10  1  0
  9 11  1  0
 11 12  1  0
 11 13  1  0
 11 14  1  0
  9 15  1  0
 15 16  1  0
 15 17  1  0
 15 18  1  0
  8 19  2  0
 19 20  1  0
 20 21  1  0
 20 22  2  0
 22 23  1  0
 22  6  1  0
M  END
$$$$

     RDKit          2D

 12 11  0  0  0  0  0  0  0  0999 V2000
    0.0000   -0.0000    0.0000 C   0  0  0  0  0  0  0  0  0  0  0  0
    1.2990    0.7500    0.0000 O   0  0  0  0  0  0  0  0  0  0  0  0
    2.5981   -0.0000    0.0000 C   0  0  0  0  0  0  0  0  0  0  0  0
    2.4152   -1.4888    0.0000 O   0  0  0  0  0  0  0  0  0  0  0  0
    3.8971    0.7500    0.0000 C   0  0  0  0  0  0  0  0  0  0  0  0
    3.1471    2.0490    0.0000 F   0  0  0  0  0  0  0  0  0  0  0  0
    5.1962    1.5000    0.0000 C   0  0  0  0  0  0  0  0  0  0  0  0
    5.1962    3.0000    0.0000 F   0  0  0  0  0  0  0  0  0  0  0  0
    4.6471   -0.5490    0.0000 C   0  0  0  0  0  0  0  0  0  0  0  0
    5.3971   -1.8481    0.0000 F   0  0  0  0  0  0  0  0  0  0  0  0
    3.4492   -1.4518    0.0000 F   0  0  0  0  0  0  0  0  0  0  0  0
    5.9462    0.2010    0.0000 F   0  0  0  0  0  0  0  0  0  0  0  0
  1  2  1  0
  2  3  1  0
  3  4  2  0
  3  5  1  0
  5  6  1  0
  5  7  1  0
  7  8  1  0
  5  9  1  0
  9 10  1  0
  9 11  1  0
  9 12  1  0
M  END
$$$$

     RDKit          2D

 62 61  0  0  0  0  0  0  0  0999 V2000
   -1.6953   -1.1979    0.0000 O   0  0  0  0  0  0  0  0  0  0  0  0
   -2.5981    0.0000    0.0000 S   0  0  0  0  0  0  0  0  0  0  0  0
   -3.3481    1.2990    0.0000 O   0  0  0  0  0  0  0  0  0  0  0  0
   -1.2990    0.7500    0.0000 O   0  0  0  0  0  0  0  0  0  0  0  0
    0.0000    0.0000    0.0000 C   0  0  0  0  0  0  0  0  0  0  0  0
    1.2990    0.7500    0.0000 C   0  0  0  0  0  0  0  0  0  0  0  0
    2.5981   -0.0000    0.0000 C   0  0  0  0  0  0  0  0  0  0  0  0
    3.8971    0.7500    0.0000 C   0  0  0  0  0  0  0  0  0  0  0  0
    5.1962   -0.0000    0.0000 O   0  0  0  0  0  0  0  0  0  0  0  0
    6.4952    0.7500    0.0000 S   0  0  0  0  0  0  0  0  0  0  0  0
    5.7452    2.0490    0.0000 O   0  0  0  0  0  0  0  0  0  0  0  0
    6.8066    0.0162    0.0000 O   0  0  0  0  0  0  0  0  0  0  0  0
    7.7942    1.5000    0.0000 C   0  0  0  0  0  0  0  0  0  0  0  0
    7.0442    2.7990    0.0000 F   0  0  0  0  0  0  0  0  0  0  0  0
    9.0933    2.2500    0.0000 F   0  0  0  0  0  0  0  0  0  0  0  0
    8.5442    0.2010    0.0000 C   0  0  0  0  0  0  0  0  0  0  0  0
    7.8369   -0.3321    0.0000 F   0  0  0  0  0  0  0  0  0  0  0  0
    9.8433    0.9510    0.0000 F   0  0  0  0  0  0  0  0  0  0  0  0
    9.2942   -1.0981    0.0000 C   0  0  0  0  0  0  0  0  0  0  0  0
    7.9952   -1.8481    0.0000 F   0  0  0  0  0  0  0  0  0  0  0  0
   10.5933   -0.3481    0.0000 F   0  0  0  0  0  0  0  0  0  0  0  0
   10.0442   -2.3971    0.0000 C   0  0  0  0  0  0  0  0  0  0  0  0
   11.3433   -1.6471    0.0000 F   0  0  0  0  0  0  0  0  0  0  0  0
    8.7452   -3.1471    0.0000 F   0  0  0  0  0  0  0  0  0  0  0  0
   10.7942   -3.6962    0.0000 C   0  0  0  0  0  0  0  0  0  0  0  0
   12.0933   -2.9462    0.0000 F   0  0  0  0  0  0  0  0  0  0  0  0
    9.4952   -4.4462    0.0000 F   0  0  0  0  0  0  0  0  0  0  0  0
   11.5442   -4.9952    0.0000 C   0  0  0  0  0  0  0  0  0  0  0  0
   10.2452   -5.7452    0.0000 F   0  0  0  0  0  0  0  0  0  0  0  0
   12.8433   -4.2452    0.0000 F   0  0  0  0  0  0  0  0  0  0  0  0
   12.2942   -6.2942    0.0000 C   0  0  0  0  0  0  0  0  0  0  0  0
   13.5933   -5.5442    0.0000 F   0  0  0  0  0  0  0  0  0  0  0  0
   10.9952   -7.0442    0.0000 F   0  0  0  0  0  0  0  0  0  0  0  0
   13.0442   -7.5933    0.0000 C   0  0  0  0  0  0  0  0  0  0  0  0
   13.7942   -8.8923    0.0000 F   0  0  0  0  0  0  0  0  0  0  0  0
   11.7452   -8.3433    0.0000 F   0  0  0  0  0  0  0  0  0  0  0  0
   14.3433   -6.8433    0.0000 F   0  0  0  0  0  0  0  0  0  0  0  0
   -3.8971   -0.7500    0.0000 C   0  0  0  0  0  0  0  0  0  0  0  0
   -4.6471    0.5490    0.0000 F   0  0  0  0  0  0  0  0  0  0  0  0
   -5.1962   -1.5000    0.0000 F   0  0  0  0  0  0  0  0  0  0  0  0
   -3.1471   -2.0490    0.0000 C   0  0  0  0  0  0  0  0  0  0  0  0
   -1.7663   -1.4630    0.0000 F   0  0  0  0  0  0  0  0  0  0  0  0
   -4.4462   -2.7990    0.0000 F   0  0  0  0  0  0  0  0  0  0  0  0
   -2.3971   -3.3481    0.0000 C   0  0  0  0  0  0  0  0  0  0  0  0
   -1.0981   -2.5981    0.0000 F   0  0  0  0  0  0  0  0  0  0  0  0
   -3.6962   -4.0981    0.0000 F   0  0  0  0  0  0  0  0  0  0  0  0
   -1.6471   -4.6471    0.0000 C   0  0  0  0  0  0  0  0  0  0  0  0
   -2.9462   -5.3971    0.0000 F   0  0  0  0  0  0  0  0  0  0  0  0
   -0.3481   -3.8971    0.0000 F   0  0  0  0  0  0  0  0  0  0  0  0
   -0.8971   -5.9462    0.0000 C   0  0  0  0  0  0  0  0  0  0  0  0
   -2.1962   -6.6962    0.0000 F   0  0  0  0  0  0  0  0  0  0  0  0
    0.4019   -5.1962    0.0000 F   0  0  0  0  0  0  0  0  0  0  0  0
   -0.1471   -7.2452    0.0000 C   0  0  0  0  0  0  0  0  0  0  0  0
    1.1519   -6.4952    0.0000 F   0  0  0  0  0  0  0  0  0  0  0  0
   -1.4462   -7.9952    0.0000 F   0  0  0  0  0  0  0  0  0  0  0  0
    0.6029   -8.5442    0.0000 C   0  0  0  0  0  0  0  0  0  0  0  0
   -0.6962   -9.2942    0.0000 F   0  0  0  0  0  0  0  0  0  0  0  0
    1.9019   -7.7942    0.0000 F   0  0  0  0  0  0  0  0  0  0  0  0
    1.3529   -9.8433    0.0000 C   0  0  0  0  0  0  0  0  0  0  0  0
    2.1029  -11.1423    0.0000 F   0  0  0  0  0  0  0  0  0  0  0  0
    2.6519   -9.0933    0.0000 F   0  0  0  0  0  0  0  0  0  0  0  0
    0.0538  -10.5933    0.0000 F   0  0  0  0  0  0  0  0  0  0  0  0
  1  2  2  0
  2  3  2  0
  2  4  1  0
  4  5  1  0
  5  6  1  0
  6  7  1  0
  7  8  1  0
  8  9  1  0
  9 10  1  0
 10 11  2  0
 10 12  2  0
 10 13  1  0
 13 14  1  0
 13 15  1  0
 13 16  1  0
 16 17  1  0
 16 18  1  0
 16 19  1  0
 19 20  1  0
 19 21  1  0
 19 22  1  0
 22 23  1  0
 22 24  1  0
 22 25  1  0
 25 26  1  0
 25 27  1  0
 25 28  1  0
 28 29  1  0
 28 30  1  0
 28 31  1  0
 31 32  1  0
 31 33  1  0
 31 34  1  0
 34 35  1  0
 34 36  1  0
 34 37  1  0
  2 38  1  0
 38 39  1  0
 38 40  1  0
 38 41  1  0
 41 42  1  0
 41 43  1  0
 41 44  1  0
 44 45  1  0
 44 46  1  0
 44 47  1  0
 47 48  1  0
 47 49  1  0
 47 50  1  0
 50 51  1  0
 50 52  1  0
 50 53  1  0
 53 54  1  0
 53 55  1  0
 53 56  1  0
 56 57  1  0
 56 58  1  0
 56 59  1  0
 59 60  1  0
 59 61  1  0
 59 62  1  0
M  END
$$$$

     RDKit          2D

 16 15  0  0  0  0  0  0  0  0999 V2000
   -1.2990    2.2500    0.0000 F   0  0  0  0  0  0  0  0  0  0  0  0
   -0.0000    1.5000    0.0000 P   0  0  0  0  0  0  0  0  0  0  0  0
    1.1979    2.4028    0.0000 F   0  0  0  0  0  0  0  0  0  0  0  0
    0.0000    0.0000    0.0000 C   0  0  0  0  0  0  0  0  0  0  0  0
   -1.5000   -0.0000    0.0000 F   0  0  0  0  0  0  0  0  0  0  0  0
    0.0000   -1.5000    0.0000 F   0  0  0  0  0  0  0  0  0  0  0  0
    1.5000    0.0000    0.0000 C   0  0  0  0  0  0  0  0  0  0  0  0
    1.6828    1.4888    0.0000 F   0  0  0  0  0  0  0  0  0  0  0  0
    1.5000   -1.5000    0.0000 F   0  0  0  0  0  0  0  0  0  0  0  0
    3.0000    0.0000    0.0000 C   0  0  0  0  0  0  0  0  0  0  0  0
    3.0000    1.5000    0.0000 F   0  0  0  0  0  0  0  0  0  0  0  0
    3.0000   -1.5000    0.0000 F   0  0  0  0  0  0  0  0  0  0  0  0
    4.5000    0.0000    0.0000 C   0  0  0  0  0  0  0  0  0  0  0  0
    6.0000    0.0000    0.0000 F   0  0  0  0  0  0  0  0  0  0  0  0
    4.5000   -1.5000    0.0000 F   0  0  0  0  0  0  0  0  0  0  0  0
    4.5000    1.5000    0.0000 F   0  0  0  0  0  0  0  0  0  0  0  0
  1  2  1  0
  2  3  1  0
  2  4  1  0
  4  5  1  0
  4  6  1  0
  4  7  1  0
  7  8  1  0
  7  9  1  0
  7 10  1  0
 10 11  1  0
 10 12  1  0
 10 13  1  0
 13 14  1  0
 13 15  1  0
 13 16  1  0
M  END
$$$$

     RDKit          2D

 31 32  0  0  0  0  0  0  0  0999 V2000
    3.0000    0.0000    0.0000 C   0  0  0  0  0  0  0  0  0  0  0  0
    1.5000    0.0000    0.0000 C   0  0  0  0  0  0  0  0  0  0  0  0
    0.7500   -1.2990    0.0000 C   0  0  0  0  0  0  0  0  0  0  0  0
   -0.7500   -1.2990    0.0000 C   0  0  0  0  0  0  0  0  0  0  0  0
   -1.5000   -2.5981    0.0000 C   0  0  0  0  0  0  0  0  0  0  0  0
   -0.2010   -3.3481    0.0000 F   0  0  0  0  0  0  0  0  0  0  0  0
   -2.2500   -3.8971    0.0000 C   0  0  0  0  0  0  0  0  0  0  0  0
   -3.0000   -5.1962    0.0000 F   0  0  0  0  0  0  0  0  0  0  0  0
   -0.9510   -4.6471    0.0000 F   0  0  0  0  0  0  0  0  0  0  0  0
   -3.0653   -3.5511    0.0000 F   0  0  0  0  0  0  0  0  0  0  0  0
   -2.7990   -1.8481    0.0000 C   0  0  0  0  0  0  0  0  0  0  0  0
   -4.0981   -1.0981    0.0000 F   0  0  0  0  0  0  0  0  0  0  0  0
   -3.3321   -2.5554    0.0000 F   0  0  0  0  0  0  0  0  0  0  0  0
   -2.3857   -0.4062    0.0000 F   0  0  0  0  0  0  0  0  0  0  0  0
   -1.5000    0.0000    0.0000 C   0  0  0  0  0  0  0  0  0  0  0  0
   -0.7500    1.2990    0.0000 C   0  0  0  0  0  0  0  0  0  0  0  0
   -1.5000    2.5981    0.0000 C   0  0  0  0  0  0  0  0  0  0  0  0
    0.7500    1.2990    0.0000 C   0  0  0  0  0  0  0  0  0  0  0  0
    1.5000    2.5981    0.0000 N   0  0  0  0  0  0  0  0  0  0  0  0
    3.0000    2.5981    0.0000 C   0  0  0  0  0  0  0  0  0  0  0  0
    3.7500    1.2990    0.0000 O   0  0  0  0  0  0  0  0  0  0  0  0
    3.7500    3.8971    0.0000 C   0  0  0  0  0  0  0  0  0  0  0  0
    5.2500    3.8971    0.0000 C   0  0  0  0  0  0  0  0  0  0  0  0
    6.0000    5.1962    0.0000 C   0  0  0  0  0  0  0  0  0  0  0  0
    5.2500    6.4952    0.0000 C   0  0  0  0  0  0  0  0  0  0  0  0
    3.7500    6.4952    0.0000 C   0  0  0  0  0  0  0  0  0  0  0  0
    3.0000    7.7942    0.0000 N   0  0  0  0  0  0  0  0  0  0  0  0
    1.5000    7.7942    0.0000 O   0  0  0  0  0  0  0  0  0  0  0  0
    3.7500    9.0933    0.0000 O   0  0  0  0  0  0  0  0  0  0  0  0
    3.0000    5.1962    0.0000 C   0  0  0  0  0  0  0  0  0  0  0  0
    1.5000    5.1962    0.0000 Cl  0  0  0  0  0  0  0  0  0  0  0  0
  1  2  1  0
  2  3  2  0
  3  4  1  0
  4  5  1  0
  5  6  1  0
  5  7  1  0
  7  8  1  0
  7  9  1  0
  7 10  1  0
  5 11  1  0
 11 12  1  0
 11 13  1  0
 11 14  1  0
  4 15  2  0
 15 16  1  0
 16 17  1  0
 16 18  2  0
 18 19  1  0
 19 20  1  0
 20 21  2  0
 20 22  1  0
 22 23  2  0
 23 24  1  0
 24 25  2  0
 25 26  1  0
 26 27  1  0
 27 28  2  0
 27 29  1  0
 26 30  2  0
 30 31  1  0
 18  2  1  0
 30 22  1  0
M  CHG  2  27   1  29  -1
M  END
$$$$

     RDKit          2D

 15 15  0  0  0  0  0  0  0  0999 V2000
    4.0586    0.4512    0.0000 O   0  0  0  0  0  0  0  0  0  0  0  0
    2.6491    0.9642    0.0000 C   0  0  0  0  0  0  0  0  0  0  0  0
    2.5976    1.9470    0.0000 O   0  0  0  0  0  0  0  0  0  0  0  0
    1.5000    0.0000    0.0000 C   0  0  0  0  0  0  0  0  0  0  0  0
    2.6491   -0.9642    0.0000 F   0  0  0  0  0  0  0  0  0  0  0  0
    0.7500   -1.2990    0.0000 C   0  0  0  0  0  0  0  0  0  0  0  0
   -0.7500   -1.2990    0.0000 C   0  0  0  0  0  0  0  0  0  0  0  0
   -1.5000    0.0000    0.0000 C   0  0  0  0  0  0  0  0  0  0  0  0
   -3.0000    0.0000    0.0000 F   0  0  0  0  0  0  0  0  0  0  0  0
   -0.7500    1.2990    0.0000 C   0  0  0  0  0  0  0  0  0  0  0  0
   -2.1595    1.8121    0.0000 F   0  0  0  0  0  0  0  0  0  0  0  0
   -0.4895    2.7762    0.0000 F   0  0  0  0  0  0  0  0  0  0  0  0
    0.7500    1.2990    0.0000 C   0  0  0  0  0  0  0  0  0  0  0  0
    0.4895    2.7762    0.0000 F   0  0  0  0  0  0  0  0  0  0  0  0
    1.6269    1.7459    0.0000 F   0  0  0  0  0  0  0  0  0  0  0  0
  1  2  2  0
  2  3  1  0
  2  4  1  0
  4  5  1  0
  4  6  1  0
  6  7  2  0
  7  8  1  0
  8  9  1  0
  8 10  1  0
 10 11  1  0
 10 12  1  0
 10 13  1  0
 13 14  1  0
 13 15  1  0
 13  4  1  0
M  CHG  1   3  -1
M  END
$$$$

     RDKit          2D

 15 14  0  0  0  0  0  0  0  0999 V2000
    1.2990    2.2500    0.0000 C   0  0  0  0  0  0  0  0  0  0  0  0
    1.2990    0.7500    0.0000 C   0  0  0  0  0  0  0  0  0  0  0  0
    2.5981   -0.0000    0.0000 S   0  0  0  0  0  0  0  0  0  0  0  0
    2.1183   -0.6366    0.0000 O   0  0  0  0  0  0  0  0  0  0  0  0
    3.3481    1.2990    0.0000 O   0  0  0  0  0  0  0  0  0  0  0  0
    3.8971   -0.7500    0.0000 C   0  0  0  0  0  0  0  0  0  0  0  0
    4.6471    0.5490    0.0000 F   0  0  0  0  0  0  0  0  0  0  0  0
    5.1962   -1.5000    0.0000 F   0  0  0  0  0  0  0  0  0  0  0  0
    3.1471   -2.0490    0.0000 C   0  0  0  0  0  0  0  0  0  0  0  0
    2.3318   -1.7030    0.0000 F   0  0  0  0  0  0  0  0  0  0  0  0
    4.4462   -2.7990    0.0000 F   0  0  0  0  0  0  0  0  0  0  0  0
    2.3971   -3.3481    0.0000 C   0  0  0  0  0  0  0  0  0  0  0  0
    1.6471   -4.6471    0.0000 F   0  0  0  0  0  0  0  0  0  0  0  0
    1.0981   -2.5981    0.0000 F   0  0  0  0  0  0  0  0  0  0  0  0
    3.6962   -4.0981    0.0000 F   0  0  0  0  0  0  0  0  0  0  0  0
  1  2  1  0
  2  3  1  0
  3  4  2  0
  3  5  2  0
  3  6  1  0
  6  7  1  0
  6  8  1  0
  6  9  1  0
  9 10  1  0
  9 11  1  0
  9 12  1  0
 12 13  1  0
 12 14  1  0
 12 15  1  0
M  END
$$$$

     RDKit          2D

 13 13  0  0  0  0  0  0  0  0999 V2000
    3.7981    1.9284    0.0000 F   0  0  0  0  0  0  0  0  0  0  0  0
    2.6491    0.9642    0.0000 C   0  0  0  0  0  0  0  0  0  0  0  0
    3.6132   -0.1849    0.0000 F   0  0  0  0  0  0  0  0  0  0  0  0
    2.2149    1.6327    0.0000 F   0  0  0  0  0  0  0  0  0  0  0  0
    1.5000    0.0000    0.0000 C   0  0  0  0  0  0  0  0  0  0  0  0
    2.6491   -0.9642    0.0000 F   0  0  0  0  0  0  0  0  0  0  0  0
    0.7500   -1.2990    0.0000 O   0  0  0  0  0  0  0  0  0  0  0  0
   -0.7500   -1.2990    0.0000 C   0  0  0  0  0  0  0  0  0  0  0  0
   -1.5000    0.0000    0.0000 C   0  0  0  0  0  0  0  0  0  0  0  0
   -0.7500    1.2990    0.0000 O   0  0  0  0  0  0  0  0  0  0  0  0
    0.7500    1.2990    0.0000 C   0  0  0  0  0  0  0  0  0  0  0  0
    0.4895    2.7762    0.0000 F   0  0  0  0  0  0  0  0  0  0  0  0
    1.4603    1.6610    0.0000 F   0  0  0  0  0  0  0  0  0  0  0  0
  1  2  1  0
  2  3  1  0
  2  4  1  0
  2  5  1  0
  5  6  1  0
  5  7  1  0
  7  8  1  0
  8  9  1  0
  9 10  1  0
 10 11  1  0
 11 12  1  0
 11 13  1  0
 11  5  1  0
M  END
$$$$

     RDKit          2D

 44 46  0  0  0  0  0  0  0  0999 V2000
    1.5000   -5.1962    0.0000 C   0  0  0  0  0  0  0  0  0  0  0  0
    0.7500   -3.8971    0.0000 N   0  0  0  0  0  0  0  0  0  0  0  0
    1.5000   -2.5981    0.0000 C   0  0  0  0  0  0  0  0  0  0  0  0
    0.7500   -1.2990    0.0000 O   0  0  0  0  0  0  0  0  0  0  0  0
    3.0000   -2.5981    0.0000 C   0  0  0  0  0  0  0  0  0  0  0  0
    3.7500   -1.2990    0.0000 C   0  0  0  0  0  0  0  0  0  0  0  0
    5.2500   -1.2990    0.0000 C   0  0  0  0  0  0  0  0  0  0  0  0
    6.0000   -2.5981    0.0000 C   0  0  0  0  0  0  0  0  0  0  0  0
    5.2500   -3.8971    0.0000 N   0  0  0  0  0  0  0  0  0  0  0  0
    3.7500   -3.8971    0.0000 C   0  0  0  0  0  0  0  0  0  0  0  0
    3.0000   -5.1962    0.0000 Cl  0  0  0  0  0  0  0  0  0  0  0  0
   -0.7500   -3.8971    0.0000 C   0  0  0  0  0  0  0  0  0  0  0  0
   -1.5000   -2.5981    0.0000 C   0  0  0  0  0  0  0  0  0  0  0  0
   -3.0000   -2.5981    0.0000 C   0  0  0  0  0  0  0  0  0  0  0  0
   -3.7500   -3.8971    0.0000 C   0  0  0  0  0  0  0  0  0  0  0  0
   -3.0000   -5.1962    0.0000 C   0  0  0  0  0  0  0  0  0  0  0  0
   -3.7500   -6.4952    0.0000 C   0  0  0  0  0  0  0  0  0  0  0  0
   -3.1577   -7.2812    0.0000 O   0  0  0  0  0  0  0  0  0  0  0  0
   -5.2500   -6.4952    0.0000 N   0  0  0  0  0  0  0  0  0  0  0  0
   -6.0000   -7.7942    0.0000 C   0  0  0  0  0  0  0  0  0  0  0  0
   -7.5000   -7.7942    0.0000 C   0  0  0  0  0  0  0  0  0  0  0  0
   -8.2500   -6.4952    0.0000 I   0  0  0  0  0  0  0  0  0  0  0  0
   -8.2500   -9.0933    0.0000 C   0  0  0  0  0  0  0  0  0  0  0  0
   -7.5000  -10.3923    0.0000 C   0  0  0  0  0  0  0  0  0  0  0  0
   -8.2500  -11.6913    0.0000 C   0  0  0  0  0  0  0  0  0  0  0  0
   -6.9510  -12.4413    0.0000 F   0  0  0  0  0  0  0  0  0  0  0  0
   -9.5490  -10.9413    0.0000 C   0  0  0  0  0  0  0  0  0  0  0  0
  -10.8481  -10.1913    0.0000 F   0  0  0  0  0  0  0  0  0  0  0  0
   -9.1357   -9.4994    0.0000 F   0  0  0  0  0  0  0  0  0  0  0  0
  -10.0821  -11.6487    0.0000 F   0  0  0  0  0  0  0  0  0  0  0  0
   -9.0000  -12.9904    0.0000 C   0  0  0  0  0  0  0  0  0  0  0  0
   -7.7010  -13.7404    0.0000 F   0  0  0  0  0  0  0  0  0  0  0  0
   -9.8153  -12.6443    0.0000 F   0  0  0  0  0  0  0  0  0  0  0  0
   -9.7500  -14.2894    0.0000 C   0  0  0  0  0  0  0  0  0  0  0  0
  -10.5000  -15.5885    0.0000 F   0  0  0  0  0  0  0  0  0  0  0  0
  -11.0490  -13.5394    0.0000 F   0  0  0  0  0  0  0  0  0  0  0  0
   -8.4510  -15.0394    0.0000 F   0  0  0  0  0  0  0  0  0  0  0  0
   -6.0000  -10.3923    0.0000 C   0  0  0  0  0  0  0  0  0  0  0  0
   -5.2500   -9.0933    0.0000 C   0  0  0  0  0  0  0  0  0  0  0  0
   -3.7500   -9.0933    0.0000 C   0  0  0  0  0  0  0  0  0  0  0  0
   -2.2500   -9.0933    0.0000 F   0  0  0  0  0  0  0  0  0  0  0  0
   -3.7500  -10.5933    0.0000 F   0  0  0  0  0  0  0  0  0  0  0  0
   -3.6300   -8.1165    0.0000 F   0  0  0  0  0  0  0  0  0  0  0  0
   -1.5000   -5.1962    0.0000 C   0  0  0  0  0  0  0  0  0  0  0  0
  1  2  1  0
  2  3  1  0
  3  4  2  0
  3  5  1  0
  5  6  2  0
  6  7  1  0
  7  8  2  0
  8  9  1  0
  9 10  2  0
 10 11  1  0
  2 12  1  0
 12 13  2  0
 13 14  1  0
 14 15  2  0
 15 16  1  0
 16 17  1  0
 17 18  2  0
 17 19  1  0
 19 20  1  0
 20 21  2  0
 21 22  1  0
 21 23  1  0
 23 24  2  0
 24 25  1  0
 25 26  1  0
 25 27  1  0
 27 28  1  0
 27 29  1  0
 27 30  1  0
 25 31  1  0
 31 32  1  0
 31 33  1  0
 31 34  1  0
 34 35  1  0
 34 36  1  0
 34 37  1  0
 24 38  1  0
 38 39  2  0
 39 40  1  0
 40 41  1  0
 40 42  1  0
 40 43  1  0
 16 44  2  0
 10  5  1  0
 44 12  1  0
 39 20  1  0
M  END
$$$$

     RDKit          2D

 36 39  0  0  0  0  0  0  0  0999 V2000
    4.5000   -0.0000    0.0000 N   0  0  0  0  0  0  0  0  0  0  0  0
    3.7500   -1.2990    0.0000 S   0  0  0  0  0  0  0  0  0  0  0  0
    5.0490   -2.0490    0.0000 O   0  0  0  0  0  0  0  0  0  0  0  0
    2.4510   -0.5490    0.0000 O   0  0  0  0  0  0  0  0  0  0  0  0
    3.0000   -2.5981    0.0000 C   0  0  0  0  0  0  0  0  0  0  0  0
    3.7500   -3.8971    0.0000 C   0  0  0  0  0  0  0  0  0  0  0  0
    3.0000   -5.1962    0.0000 C   0  0  0  0  0  0  0  0  0  0  0  0
    1.5000   -5.1962    0.0000 C   0  0  0  0  0  0  0  0  0  0  0  0
    0.7500   -3.8971    0.0000 C   0  0  0  0  0  0  0  0  0  0  0  0
    1.5000   -2.5981    0.0000 C   0  0  0  0  0  0  0  0  0  0  0  0
    0.7500   -1.2990    0.0000 C   0  0  0  0  0  0  0  0  0  0  0  0
    1.5000    0.0000    0.0000 C   0  0  0  0  0  0  0  0  0  0  0  0
    0.7500    1.2990    0.0000 C   0  0  0  0  0  0  0  0  0  0  0  0
   -0.7500    1.2990    0.0000 C   0  0  0  0  0  0  0  0  0  0  0  0
   -1.7537    2.4138    0.0000 N   0  0  0  0  0  0  0  0  0  0  0  0
   -3.1240    1.8037    0.0000 C   0  0  0  0  0  0  0  0  0  0  0  0
   -4.4231    2.5537    0.0000 C   0  0  0  0  0  0  0  0  0  0  0  0
   -5.7221    3.3037    0.0000 C   0  0  0  0  0  0  0  0  0  0  0  0
   -7.0211    4.0537    0.0000 C   0  0  0  0  0  0  0  0  0  0  0  0
   -7.0211    5.5537    0.0000 C   0  0  0  0  0  0  0  0  0  0  0  0
   -8.3202    6.3037    0.0000 C   0  0  0  0  0  0  0  0  0  0  0  0
   -9.6192    5.5537    0.0000 C   0  0  0  0  0  0  0  0  0  0  0  0
  -10.9182    6.3037    0.0000 O   0  0  0  0  0  0  0  0  0  0  0  0
  -10.9182    7.8037    0.0000 C   0  0  0  0  0  0  0  0  0  0  0  0
  -12.2173    8.5537    0.0000 C   0  0  0  0  0  0  0  0  0  0  0  0
  -11.4673    9.8527    0.0000 F   0  0  0  0  0  0  0  0  0  0  0  0
  -12.9673    7.2546    0.0000 F   0  0  0  0  0  0  0  0  0  0  0  0
  -13.5163    9.3037    0.0000 C   0  0  0  0  0  0  0  0  0  0  0  0
  -14.8154   10.0537    0.0000 F   0  0  0  0  0  0  0  0  0  0  0  0
  -14.2663    8.0046    0.0000 F   0  0  0  0  0  0  0  0  0  0  0  0
  -12.7663   10.6027    0.0000 F   0  0  0  0  0  0  0  0  0  0  0  0
   -9.6192    4.0537    0.0000 C   0  0  0  0  0  0  0  0  0  0  0  0
   -8.3202    3.3037    0.0000 C   0  0  0  0  0  0  0  0  0  0  0  0
   -2.9672    0.3119    0.0000 N   0  0  0  0  0  0  0  0  0  0  0  0
   -1.5000    0.0000    0.0000 C   0  0  0  0  0  0  0  0  0  0  0  0
   -0.7500   -1.2990    0.0000 C   0  0  0  0  0  0  0  0  0  0  0  0
  1  2  1  0
  2  3  2  0
  2  4  2  0
  2  5  1  0
  5  6  2  0
  6  7  1  0
  7  8  2  0
  8  9  1  0
  9 10  2  0
 10 11  1  0
 11 12  2  0
 12 13  1  0
 13 14  2  0
 14 15  1  0
 15 16  2  0
 16 17  1  0
 17 18  3  0
 18 19  1  0
 19 20  2  0
 20 21  1  0
 21 22  2  0
 22 23  1  0
 23 24  1  0
 24 25  1  0
 25 26  1  0
 25 27  1  0
 25 28  1  0
 28 29  1  0
 28 30  1  0
 28 31  1  0
 22 32  1  0
 32 33  2  0
 16 34  1  0
 34 35  1  0
 35 36  2  0
 10  5  1  0
 36 11  1  0
 35 14  1  0
 33 19  1  0
M  END
$$$$

     RDKit          2D

 11 10  0  0  0  0  0  0  0  0999 V2000
    1.2990    0.7500    0.0000 O   0  0  0  0  0  0  0  0  0  0  0  0
    0.0000    0.0000    0.0000 B   0  0  0  0  0  0  0  0  0  0  0  0
   -1.2990    0.7500    0.0000 O   0  0  0  0  0  0  0  0  0  0  0  0
   -0.0000   -1.5000    0.0000 O   0  0  0  0  0  0  0  0  0  0  0  0
   -1.2990   -2.2500    0.0000 C   0  0  0  0  0  0  0  0  0  0  0  0
   -2.0490   -0.9510    0.0000 F   0  0  0  0  0  0  0  0  0  0  0  0
   -0.5490   -3.5490    0.0000 F   0  0  0  0  0  0  0  0  0  0  0  0
   -2.5981   -3.0000    0.0000 C   0  0  0  0  0  0  0  0  0  0  0  0
   -3.8971   -3.7500    0.0000 F   0  0  0  0  0  0  0  0  0  0  0  0
   -3.3481   -1.7010    0.0000 F   0  0  0  0  0  0  0  0  0  0  0  0
   -1.8481   -4.2990    0.0000 F   0  0  0  0  0  0  0  0  0  0  0  0
  1  2  1  0
  2  3  1  0
  2  4  1  0
  4  5  1  0
  5  6  1  0
  5  7  1  0
  5  8  1  0
  8  9  1  0
  8 10  1  0
  8 11  1  0
M  CHG  2   1  -1   3  -1
M  END
$$$$

     RDKit          2D

 16 16  0  0  0  0  0  0  0  0999 V2000
    3.7500   -1.2990    0.0000 C   0  0  0  0  0  0  0  0  0  0  0  0
    3.0000    0.0000    0.0000 C   0  0  0  0  0  0  0  0  0  0  0  0
    1.5000    0.0000    0.0000 C   0  0  0  0  0  0  0  0  0  0  0  0
    0.7500   -1.2990    0.0000 C   0  0  0  0  0  0  0  0  0  0  0  0
   -0.7500   -1.2990    0.0000 C   0  0  0  0  0  0  0  0  0  0  0  0
   -1.5000    0.0000    0.0000 C   0  0  0  0  0  0  0  0  0  0  0  0
   -3.0000    0.0000    0.0000 O   0  0  0  0  0  0  0  0  0  0  0  0
   -3.7500    1.2990    0.0000 C   0  0  0  0  0  0  0  0  0  0  0  0
   -2.4510    2.0490    0.0000 F   0  0  0  0  0  0  0  0  0  0  0  0
   -5.0490    0.5490    0.0000 F   0  0  0  0  0  0  0  0  0  0  0  0
   -4.5000    2.5981    0.0000 C   0  0  0  0  0  0  0  0  0  0  0  0
   -5.2500    3.8971    0.0000 F   0  0  0  0  0  0  0  0  0  0  0  0
   -3.2010    3.3481    0.0000 F   0  0  0  0  0  0  0  0  0  0  0  0
   -5.7990    1.8481    0.0000 F   0  0  0  0  0  0  0  0  0  0  0  0
   -0.7500    1.2990    0.0000 C   0  0  0  0  0  0  0  0  0  0  0  0
    0.7500    1.2990    0.0000 C   0  0  0  0  0  0  0  0  0  0  0  0
  1  2  2  0
  2  3  1  0
  3  4  2  0
  4  5  1  0
  5  6  2  0
  6  7  1  0
  7  8  1  0
  8  9  1  0
  8 10  1  0
  8 11  1  0
 11 12  1  0
 11 13  1  0
 11 14  1  0
  6 15  1  0
 15 16  2  0
 16  3  1  0
M  END
$$$$

     RDKit          2D

  9  8  0  0  0  0  0  0  0  0999 V2000
    1.2990    0.7500    0.0000 O   0  0  0  0  0  0  0  0  0  0  0  0
    0.0000    0.0000    0.0000 C   0  0  0  0  0  0  0  0  0  0  0  0
   -1.2990    0.7500    0.0000 O   0  0  0  0  0  0  0  0  0  0  0  0
   -2.5981    0.0000    0.0000 C   0  0  0  0  0  0  0  0  0  0  0  0
   -2.5981   -1.5000    0.0000 F   0  0  0  0  0  0  0  0  0  0  0  0
   -3.8971    0.7500    0.0000 C   0  0  0  0  0  0  0  0  0  0  0  0
   -5.1962    1.5000    0.0000 F   0  0  0  0  0  0  0  0  0  0  0  0
   -4.6471   -0.5490    0.0000 F   0  0  0  0  0  0  0  0  0  0  0  0
   -3.1471    2.0490    0.0000 F   0  0  0  0  0  0  0  0  0  0  0  0
  1  2  2  0
  2  3  1  0
  3  4  1  0
  4  5  1  0
  4  6  1  0
  6  7  1  0
  6  8  1  0
  6  9  1  0
M  END
$$$$

     RDKit          2D

  8  7  0  0  0  0  0  0  0  0999 V2000
   -0.7500   -1.2990    0.0000 F   0  0  0  0  0  0  0  0  0  0  0  0
    0.0000    0.0000    0.0000 C   0  0  0  0  0  0  0  0  0  0  0  0
    1.5000    0.0000    0.0000 C   0  0  0  0  0  0  0  0  0  0  0  0
    2.2500   -1.2990    0.0000 F   0  0  0  0  0  0  0  0  0  0  0  0
    2.2500    1.2990    0.0000 C   0  0  0  0  0  0  0  0  0  0  0  0
    3.0000    2.5981    0.0000 F   0  0  0  0  0  0  0  0  0  0  0  0
    3.5490    0.5490    0.0000 F   0  0  0  0  0  0  0  0  0  0  0  0
    0.9510    2.0490    0.0000 F   0  0  0  0  0  0  0  0  0  0  0  0
  1  2  1  0
  2  3  2  0
  3  4  1  0
  3  5  1  0
  5  6  1  0
  5  7  1  0
  5  8  1  0
M  END
$$$$

     RDKit          2D

 32 32  0  0  0  0  0  0  0  0999 V2000
    1.7670    3.9381    0.0000 F   0  0  0  0  0  0  0  0  0  0  0  0
    2.0788    2.4709    0.0000 C   0  0  0  0  0  0  0  0  0  0  0  0
    3.5460    2.7828    0.0000 F   0  0  0  0  0  0  0  0  0  0  0  0
    1.2991    2.3052    0.0000 F   0  0  0  0  0  0  0  0  0  0  0  0
    2.3907    1.0037    0.0000 N   0  0  0  0  0  0  0  0  0  0  0  0
    3.8173    0.5402    0.0000 C   0  0  0  0  0  0  0  0  0  0  0  0
    3.4001   -0.7438    0.0000 F   0  0  0  0  0  0  0  0  0  0  0  0
    4.2808    1.9668    0.0000 F   0  0  0  0  0  0  0  0  0  0  0  0
    5.2439    0.0766    0.0000 C   0  0  0  0  0  0  0  0  0  0  0  0
    5.7074    1.5032    0.0000 F   0  0  0  0  0  0  0  0  0  0  0  0
    4.7803   -1.3499    0.0000 F   0  0  0  0  0  0  0  0  0  0  0  0
    6.6704   -0.3869    0.0000 C   0  0  0  0  0  0  0  0  0  0  0  0
    8.0970   -0.8504    0.0000 F   0  0  0  0  0  0  0  0  0  0  0  0
    6.2069   -1.8135    0.0000 F   0  0  0  0  0  0  0  0  0  0  0  0
    7.1340    1.0397    0.0000 F   0  0  0  0  0  0  0  0  0  0  0  0
    1.2760    0.0000    0.0000 C   0  0  0  0  0  0  0  0  0  0  0  0
    2.3819   -0.7743    0.0000 F   0  0  0  0  0  0  0  0  0  0  0  0
    0.3943    1.2135    0.0000 C   0  0  0  0  0  0  0  0  0  0  0  0
   -0.2158    2.5838    0.0000 F   0  0  0  0  0  0  0  0  0  0  0  0
    0.9677    1.7673    0.0000 F   0  0  0  0  0  0  0  0  0  0  0  0
   -1.0323    0.7500    0.0000 C   0  0  0  0  0  0  0  0  0  0  0  0
   -2.5241    0.5932    0.0000 F   0  0  0  0  0  0  0  0  0  0  0  0
   -1.3442    2.2172    0.0000 F   0  0  0  0  0  0  0  0  0  0  0  0
   -1.0323   -0.7500    0.0000 C   0  0  0  0  0  0  0  0  0  0  0  0
   -1.3442   -2.2172    0.0000 F   0  0  0  0  0  0  0  0  0  0  0  0
   -2.5241   -0.5932    0.0000 F   0  0  0  0  0  0  0  0  0  0  0  0
    0.3943   -1.2135    0.0000 C   0  0  0  0  0  0  0  0  0  0  0  0
   -0.2158   -2.5838    0.0000 F   0  0  0  0  0  0  0  0  0  0  0  0
    1.6933   -1.9635    0.0000 C   0  0  0  0  0  0  0  0  0  0  0  0
    2.9924   -2.7135    0.0000 F   0  0  0  0  0  0  0  0  0  0  0  0
    0.9433   -3.2626    0.0000 F   0  0  0  0  0  0  0  0  0  0  0  0
    2.5961   -0.7656    0.0000 F   0  0  0  0  0  0  0  0  0  0  0  0
  1  2  1  0
  2  3  1  0
  2  4  1  0
  2  5  1  0
  5  6  1  0
  6  7  1  0
  6  8  1  0
  6  9  1  0
  9 10  1  0
  9 11  1  0
  9 12  1  0
 12 13  1  0
 12 14  1  0
 12 15  1  0
  5 16  1  0
 16 17  1  0
 16 18  1  0
 18 19  1  0
 18 20  1  0
 18 21  1  0
 21 22  1  0
 21 23  1  0
 21 24  1  0
 24 25  1  0
 24 26  1  0
 24 27  1  0
 27 28  1  0
 27 29  1  0
 29 30  1  0
 29 31  1  0
 29 32  1  0
 27 16  1  0
M  END
$$$$

     RDKit          2D

 35 34  0  0  0  0  0  0  0  0999 V2000
    0.0000    0.0000    0.0000 C   0  0  0  0  0  0  0  0  0  0  0  0
    1.2990    0.7500    0.0000 C   0  0  0  0  0  0  0  0  0  0  0  0
    2.5981   -0.0000    0.0000 C   0  0  0  0  0  0  0  0  0  0  0  0
    2.5981   -1.5000    0.0000 O   0  0  0  0  0  0  0  0  0  0  0  0
    3.8971    0.7500    0.0000 O   0  0  0  0  0  0  0  0  0  0  0  0
    5.1962   -0.0000    0.0000 C   0  0  0  0  0  0  0  0  0  0  0  0
    6.4952    0.7500    0.0000 C   0  0  0  0  0  0  0  0  0  0  0  0
    7.7942   -0.0000    0.0000 C   0  0  0  0  0  0  0  0  0  0  0  0
    9.0933    0.7500    0.0000 C   0  0  0  0  0  0  0  0  0  0  0  0
    9.0933    2.2500    0.0000 O   0  0  0  0  0  0  0  0  0  0  0  0
   10.3923   -0.0000    0.0000 C   0  0  0  0  0  0  0  0  0  0  0  0
   11.1423    1.2990    0.0000 F   0  0  0  0  0  0  0  0  0  0  0  0
    9.6423   -1.2990    0.0000 F   0  0  0  0  0  0  0  0  0  0  0  0
   11.6913   -0.7500    0.0000 C   0  0  0  0  0  0  0  0  0  0  0  0
   10.9413   -2.0490    0.0000 F   0  0  0  0  0  0  0  0  0  0  0  0
   12.4413    0.5490    0.0000 F   0  0  0  0  0  0  0  0  0  0  0  0
   12.9904   -1.5000    0.0000 C   0  0  0  0  0  0  0  0  0  0  0  0
   13.7404   -0.2010    0.0000 F   0  0  0  0  0  0  0  0  0  0  0  0
   12.2404   -2.7990    0.0000 F   0  0  0  0  0  0  0  0  0  0  0  0
   14.2894   -2.2500    0.0000 C   0  0  0  0  0  0  0  0  0  0  0  0
   13.5394   -3.5490    0.0000 F   0  0  0  0  0  0  0  0  0  0  0  0
   15.0394   -0.9510    0.0000 F   0  0  0  0  0  0  0  0  0  0  0  0
   15.5885   -3.0000    0.0000 C   0  0  0  0  0  0  0  0  0  0  0  0
   16.3385   -1.7010    0.0000 F   0  0  0  0  0  0  0  0  0  0  0  0
   14.8385   -4.2990    0.0000 F   0  0  0  0  0  0  0  0  0  0  0  0
   16.8875   -3.7500    0.0000 C   0  0  0  0  0  0  0  0  0  0  0  0
   16.1375   -5.0490    0.0000 F   0  0  0  0  0  0  0  0  0  0  0  0
   17.6375   -2.4510    0.0000 F   0  0  0  0  0  0  0  0  0  0  0  0
   18.1865   -4.5000    0.0000 C   0  0  0  0  0  0  0  0  0  0  0  0
   18.9365   -3.2010    0.0000 F   0  0  0  0  0  0  0  0  0  0  0  0
   17.4365   -5.7990    0.0000 F   0  0  0  0  0  0  0  0  0  0  0  0
   19.4856   -5.2500    0.0000 C   0  0  0  0  0  0  0  0  0  0  0  0
   20.7846   -6.0000    0.0000 F   0  0  0  0  0  0  0  0  0  0  0  0
   18.7356   -6.5490    0.0000 F   0  0  0  0  0  0  0  0  0  0  0  0
   20.2356   -3.9510    0.0000 F   0  0  0  0  0  0  0  0  0  0  0  0
  1  2  2  0
  2  3  1  0
  3  4  2  0
  3  5  1  0
  5  6  1  0
  6  7  1  0
  7  8  1  0
  8  9  1  0
  9 10  2  0
  9 11  1  0
 11 12  1  0
 11 13  1  0
 11 14  1  0
 14 15  1  0
 14 16  1  0
 14 17  1  0
 17 18  1  0
 17 19  1  0
 17 20  1  0
 20 21  1  0
 20 22  1  0
 20 23  1  0
 23 24  1  0
 23 25  1  0
 23 26  1  0
 26 27  1  0
 26 28  1  0
 26 29  1  0
 29 30  1  0
 29 31  1  0
 29 32  1  0
 32 33  1  0
 32 34  1  0
 32 35  1  0
M  END
$$$$

     RDKit          2D

 32 30  0  0  0  0  0  0  0  0999 V2000
   -0.0000   -1.5000    0.0000 O   0  0  0  0  0  0  0  0  0  0  0  0
    0.0000    0.0000    0.0000 C   0  0  0  0  0  0  0  0  0  0  0  0
   -1.2990    0.7500    0.0000 O   0  0  0  0  0  0  0  0  0  0  0  0
    1.2990    0.7500    0.0000 C   0  0  0  0  0  0  0  0  0  0  0  0
    2.0490   -0.5490    0.0000 F   0  0  0  0  0  0  0  0  0  0  0  0
    0.5490    2.0490    0.0000 F   0  0  0  0  0  0  0  0  0  0  0  0
    2.5981    1.5000    0.0000 C   0  0  0  0  0  0  0  0  0  0  0  0
    1.8481    2.7990    0.0000 F   0  0  0  0  0  0  0  0  0  0  0  0
    3.3481    0.2010    0.0000 F   0  0  0  0  0  0  0  0  0  0  0  0
    3.8971    2.2500    0.0000 C   0  0  0  0  0  0  0  0  0  0  0  0
    4.6471    0.9510    0.0000 F   0  0  0  0  0  0  0  0  0  0  0  0
    3.1471    3.5490    0.0000 F   0  0  0  0  0  0  0  0  0  0  0  0
    5.1962    3.0000    0.0000 C   0  0  0  0  0  0  0  0  0  0  0  0
    4.4462    4.2990    0.0000 F   0  0  0  0  0  0  0  0  0  0  0  0
    5.9462    1.7010    0.0000 F   0  0  0  0  0  0  0  0  0  0  0  0
    6.4952    3.7500    0.0000 C   0  0  0  0  0  0  0  0  0  0  0  0
    7.2452    2.4510    0.0000 F   0  0  0  0  0  0  0  0  0  0  0  0
    5.7452    5.0490    0.0000 F   0  0  0  0  0  0  0  0  0  0  0  0
    7.7942    4.5000    0.0000 C   0  0  0  0  0  0  0  0  0  0  0  0
    7.0442    5.7990    0.0000 F   0  0  0  0  0  0  0  0  0  0  0  0
    8.5442    3.2010    0.0000 F   0  0  0  0  0  0  0  0  0  0  0  0
    9.0933    5.2500    0.0000 C   0  0  0  0  0  0  0  0  0  0  0  0
    9.8433    3.9510    0.0000 F   0  0  0  0  0  0  0  0  0  0  0  0
    8.3433    6.5490    0.0000 F   0  0  0  0  0  0  0  0  0  0  0  0
   10.3923    6.0000    0.0000 C   0  0  0  0  0  0  0  0  0  0  0  0
    9.6423    7.2990    0.0000 F   0  0  0  0  0  0  0  0  0  0  0  0
   11.1423    4.7010    0.0000 F   0  0  0  0  0  0  0  0  0  0  0  0
   11.6913    6.7500    0.0000 C   0  0  0  0  0  0  0  0  0  0  0  0
   12.9904    7.5000    0.0000 F   0  0  0  0  0  0  0  0  0  0  0  0
   12.4413    5.4510    0.0000 F   0  0  0  0  0  0  0  0  0  0  0  0
   10.9413    8.0490    0.0000 F   0  0  0  0  0  0  0  0  0  0  0  0
    0.0000    9.0490    0.0000 K   0  0  0  0  0 15  0  0  0  0  0  0
  1  2  2  0
  2  3  1  0
  2  4  1  0
  4  5  1  0
  4  6  1  0
  4  7  1  0
  7  8  1  0
  7  9  1  0
  7 10  1  0
 10 11  1  0
 10 12  1  0
 10 13  1  0
 13 14  1  0
 13 15  1  0
 13 16  1  0
 16 17  1  0
 16 18  1  0
 16 19  1  0
 19 20  1  0
 19 21  1  0
 19 22  1  0
 22 23  1  0
 22 24  1  0
 22 25  1  0
 25 26  1  0
 25 27  1  0
 25 28  1  0
 28 29  1  0
 28 30  1  0
 28 31  1  0
M  CHG  2   3  -1  32   1
M  END
$$$$

     RDKit          2D

 32 30  0  0  0  0  0  0  0  0999 V2000
   -6.0000   10.3923    0.0000 F   0  0  0  0  0  0  0  0  0  0  0  0
   -5.2500    9.0933    0.0000 C   0  0  0  0  0  0  0  0  0  0  0  0
   -6.5490    8.3433    0.0000 F   0  0  0  0  0  0  0  0  0  0  0  0
   -3.9510    9.8433    0.0000 F   0  0  0  0  0  0  0  0  0  0  0  0
   -4.5000    7.7942    0.0000 C   0  0  0  0  0  0  0  0  0  0  0  0
   -3.2010    8.5442    0.0000 F   0  0  0  0  0  0  0  0  0  0  0  0
   -5.7990    7.0442    0.0000 F   0  0  0  0  0  0  0  0  0  0  0  0
   -3.7500    6.4952    0.0000 C   0  0  0  0  0  0  0  0  0  0  0  0
   -5.0490    5.7452    0.0000 F   0  0  0  0  0  0  0  0  0  0  0  0
   -2.4510    7.2452    0.0000 F   0  0  0  0  0  0  0  0  0  0  0  0
   -3.0000    5.1962    0.0000 C   0  0  0  0  0  0  0  0  0  0  0  0
   -1.7010    5.9462    0.0000 F   0  0  0  0  0  0  0  0  0  0  0  0
   -4.2990    4.4462    0.0000 F   0  0  0  0  0  0  0  0  0  0  0  0
   -2.2500    3.8971    0.0000 C   0  0  0  0  0  0  0  0  0  0  0  0
   -3.5490    3.1471    0.0000 F   0  0  0  0  0  0  0  0  0  0  0  0
   -0.9510    4.6471    0.0000 F   0  0  0  0  0  0  0  0  0  0  0  0
   -1.5000    2.5981    0.0000 C   0  0  0  0  0  0  0  0  0  0  0  0
   -0.2010    3.3481    0.0000 F   0  0  0  0  0  0  0  0  0  0  0  0
   -2.7990    1.8481    0.0000 F   0  0  0  0  0  0  0  0  0  0  0  0
   -0.7500    1.2990    0.0000 C   0  0  0  0  0  0  0  0  0  0  0  0
   -2.0490    0.5490    0.0000 F   0  0  0  0  0  0  0  0  0  0  0  0
    0.5490    2.0490    0.0000 F   0  0  0  0  0  0  0  0  0  0  0  0
    0.0000    0.0000    0.0000 C   0  0  0  0  0  0  0  0  0  0  0  0
   -0.7500   -1.2990    0.0000 O   0  0  0  0  0  0  0  0  0  0  0  0
   -2.2500   -1.2990    0.0000 Cr  0  0  0  0  0  3  0  0  0  0  0  0
   -3.0000   -2.5981    0.0000 Cl  0  0  0  0  0  0  0  0  0  0  0  0
   -3.0000    0.0000    0.0000 Cl  0  0  0  0  0  0  0  0  0  0  0  0
    1.5000    0.0000    0.0000 O   0  0  0  0  0  0  0  0  0  0  0  0
    2.2500   -1.2990    0.0000 Cr  0  0  0  0  0  3  0  0  0  0  0  0
    3.7500   -1.2990    0.0000 Cl  0  0  0  0  0  0  0  0  0  0  0  0
    1.5000   -2.5981    0.0000 Cl  0  0  0  0  0  0  0  0  0  0  0  0
    4.7500    0.0000    0.0000 O   0  0  0  0  0  0  0  0  0  0  0  0
  1  2  1  0
  2  3  1  0
  2  4  1  0
  2  5  1  0
  5  6  1  0
  5  7  1  0
  5  8  1  0
  8  9  1  0
  8 10  1  0
  8 11  1  0
 11 12  1  0
 11 13  1  0
 11 14  1  0
 14 15  1  0
 14 16  1  0
 14 17  1  0
 17 18  1  0
 17 19  1  0
 17 20  1  0
 20 21  1  0
 20 22  1  0
 20 23  1  0
 23 24  1  0
 24 25  1  0
 25 26  1  0
 25 27  1  0
 23 28  2  0
 28 29  1  0
 29 30  1  0
 29 31  1  0
M  CHG  4  25   1  28   1  29  -1  32  -1
M  END
$$$$

     RDKit          2D

 37 36  0  0  0  0  0  0  0  0999 V2000
   -0.0000   -1.5000    0.0000 O   0  0  0  0  0  0  0  0  0  0  0  0
    0.0000    0.0000    0.0000 C   0  0  0  0  0  0  0  0  0  0  0  0
   -1.2990    0.7500    0.0000 O   0  0  0  0  0  0  0  0  0  0  0  0
    1.2990    0.7500    0.0000 C   0  0  0  0  0  0  0  0  0  0  0  0
    0.5490    2.0490    0.0000 F   0  0  0  0  0  0  0  0  0  0  0  0
    2.0490   -0.5490    0.0000 F   0  0  0  0  0  0  0  0  0  0  0  0
    2.5981    1.5000    0.0000 C   0  0  0  0  0  0  0  0  0  0  0  0
    3.3481    0.2010    0.0000 F   0  0  0  0  0  0  0  0  0  0  0  0
    1.8481    2.7990    0.0000 F   0  0  0  0  0  0  0  0  0  0  0  0
    3.8971    2.2500    0.0000 C   0  0  0  0  0  0  0  0  0  0  0  0
    3.1471    3.5490    0.0000 F   0  0  0  0  0  0  0  0  0  0  0  0
    4.6471    0.9510    0.0000 F   0  0  0  0  0  0  0  0  0  0  0  0
    5.1962    3.0000    0.0000 C   0  0  0  0  0  0  0  0  0  0  0  0
    5.9462    1.7010    0.0000 F   0  0  0  0  0  0  0  0  0  0  0  0
    4.4462    4.2990    0.0000 F   0  0  0  0  0  0  0  0  0  0  0  0
    6.4952    3.7500    0.0000 C   0  0  0  0  0  0  0  0  0  0  0  0
    5.7452    5.0490    0.0000 F   0  0  0  0  0  0  0  0  0  0  0  0
    7.2452    2.4510    0.0000 F   0  0  0  0  0  0  0  0  0  0  0  0
    7.7942    4.5000    0.0000 C   0  0  0  0  0  0  0  0  0  0  0  0
    8.5442    3.2010    0.0000 F   0  0  0  0  0  0  0  0  0  0  0  0
    7.0442    5.7990    0.0000 F   0  0  0  0  0  0  0  0  0  0  0  0
    9.0933    5.2500    0.0000 C   0  0  0  0  0  0  0  0  0  0  0  0
    9.8433    3.9510    0.0000 F   0  0  0  0  0  0  0  0  0  0  0  0
    8.3433    6.5490    0.0000 F   0  0  0  0  0  0  0  0  0  0  0  0
   10.3923    6.0000    0.0000 C   0  0  0  0  0  0  0  0  0  0  0  0
    9.6423    7.2990    0.0000 F   0  0  0  0  0  0  0  0  0  0  0  0
   11.1423    4.7010    0.0000 F   0  0  0  0  0  0  0  0  0  0  0  0
   11.6913    6.7500    0.0000 C   0  0  0  0  0  0  0  0  0  0  0  0
   12.4413    5.4510    0.0000 F   0  0  0  0  0  0  0  0  0  0  0  0
   10.9413    8.0490    0.0000 F   0  0  0  0  0  0  0  0  0  0  0  0
   12.9904    7.5000    0.0000 C   0  0  0  0  0  0  0  0  0  0  0  0
   12.2404    8.7990    0.0000 F   0  0  0  0  0  0  0  0  0  0  0  0
   13.7404    6.2010    0.0000 F   0  0  0  0  0  0  0  0  0  0  0  0
   14.2894    8.2500    0.0000 C   0  0  0  0  0  0  0  0  0  0  0  0
   15.5885    9.0000    0.0000 F   0  0  0  0  0  0  0  0  0  0  0  0
   15.0394    6.9510    0.0000 F   0  0  0  0  0  0  0  0  0  0  0  0
   13.5394    9.5490    0.0000 F   0  0  0  0  0  0  0  0  0  0  0  0
  1  2  2  0
  2  3  1  0
  2  4  1  0
  4  5  1  0
  4  6  1  0
  4  7  1  0
  7  8  1  0
  7  9  1  0
  7 10  1  0
 10 11  1  0
 10 12  1  0
 10 13  1  0
 13 14  1  0
 13 15  1  0
 13 16  1  0
 16 17  1  0
 16 18  1  0
 16 19  1  0
 19 20  1  0
 19 21  1  0
 19 22  1  0
 22 23  1  0
 22 24  1  0
 22 25  1  0
 25 26  1  0
 25 27  1  0
 25 28  1  0
 28 29  1  0
 28 30  1  0
 28 31  1  0
 31 32  1  0
 31 33  1  0
 31 34  1  0
 34 35  1  0
 34 36  1  0
 34 37  1  0
M  ISO  2   2  13   4  13
M  END
$$$$

     RDKit          2D

 27 26  0  0  0  0  0  0  0  0999 V2000
   -1.5000   -1.5000    0.0000 O   0  0  0  0  0  0  0  0  0  0  0  0
    0.0000   -1.5000    0.0000 S   0  0  0  0  0  0  0  0  0  0  0  0
    0.7912   -1.5972    0.0000 O   0  0  0  0  0  0  0  0  0  0  0  0
   -0.0000   -3.0000    0.0000 O   0  0  0  0  0  0  0  0  0  0  0  0
    0.0000    0.0000    0.0000 C   0  0  0  0  0  0  0  0  0  0  0  0
   -1.5000    0.0000    0.0000 F   0  0  0  0  0  0  0  0  0  0  0  0
    0.0000    1.5000    0.0000 F   0  0  0  0  0  0  0  0  0  0  0  0
    1.5000    0.0000    0.0000 C   0  0  0  0  0  0  0  0  0  0  0  0
    1.5000    1.5000    0.0000 F   0  0  0  0  0  0  0  0  0  0  0  0
    1.6080   -0.8791    0.0000 F   0  0  0  0  0  0  0  0  0  0  0  0
    3.0000    0.0000    0.0000 C   0  0  0  0  0  0  0  0  0  0  0  0
    3.0000   -1.5000    0.0000 F   0  0  0  0  0  0  0  0  0  0  0  0
    3.0000    1.5000    0.0000 F   0  0  0  0  0  0  0  0  0  0  0  0
    4.5000    0.0000    0.0000 C   0  0  0  0  0  0  0  0  0  0  0  0
    4.5000   -1.5000    0.0000 F   0  0  0  0  0  0  0  0  0  0  0  0
    4.5000    1.5000    0.0000 F   0  0  0  0  0  0  0  0  0  0  0  0
    6.0000    0.0000    0.0000 C   0  0  0  0  0  0  0  0  0  0  0  0
    6.0000    1.5000    0.0000 F   0  0  0  0  0  0  0  0  0  0  0  0
    6.0000   -1.5000    0.0000 F   0  0  0  0  0  0  0  0  0  0  0  0
    7.5000    0.0000    0.0000 C   0  0  0  0  0  0  0  0  0  0  0  0
    7.5000   -1.5000    0.0000 F   0  0  0  0  0  0  0  0  0  0  0  0
    7.5000    1.5000    0.0000 F   0  0  0  0  0  0  0  0  0  0  0  0
    9.0000    0.0000    0.0000 O   0  0  0  0  0  0  0  0  0  0  0  0
    9.7500    1.2990    0.0000 C   0  0  0  0  0  0  0  0  0  0  0  0
   10.5000    2.5981    0.0000 F   0  0  0  0  0  0  0  0  0  0  0  0
   11.0490    0.5490    0.0000 F   0  0  0  0  0  0  0  0  0  0  0  0
    8.4510    2.0490    0.0000 F   0  0  0  0  0  0  0  0  0  0  0  0
  1  2  2  0
  2  3  2  0
  2  4  1  0
  2  5  1  0
  5  6  1  0
  5  7  1  0
  5  8  1  0
  8  9  1  0
  8 10  1  0
  8 11  1  0
 11 12  1  0
 11 13  1  0
 11 14  1  0
 14 15  1  0
 14 16  1  0
 14 17  1  0
 17 18  1  0
 17 19  1  0
 17 20  1  0
 20 21  1  0
 20 22  1  0
 20 23  1  0
 23 24  1  0
 24 25  1  0
 24 26  1  0
 24 27  1  0
M  END
$$$$

     RDKit          2D

 36 35  0  0  0  0  0  0  0  0999 V2000
   -8.0490   10.9413    0.0000 O   0  0  0  0  0  0  0  0  0  0  0  0
   -7.2990    9.6423    0.0000 S   0  0  0  0  0  0  0  0  0  0  0  0
   -6.9876    8.9085    0.0000 O   0  0  0  0  0  0  0  0  0  0  0  0
   -8.5981    8.8923    0.0000 O   0  0  0  0  0  0  0  0  0  0  0  0
   -6.0000   10.3923    0.0000 C   0  0  0  0  0  0  0  0  0  0  0  0
   -6.7500   11.6913    0.0000 F   0  0  0  0  0  0  0  0  0  0  0  0
   -4.7010   11.1423    0.0000 F   0  0  0  0  0  0  0  0  0  0  0  0
   -5.2500    9.0933    0.0000 C   0  0  0  0  0  0  0  0  0  0  0  0
   -5.9574    8.5602    0.0000 F   0  0  0  0  0  0  0  0  0  0  0  0
   -3.9510    9.8433    0.0000 F   0  0  0  0  0  0  0  0  0  0  0  0
   -4.5000    7.7942    0.0000 C   0  0  0  0  0  0  0  0  0  0  0  0
   -3.2010    8.5442    0.0000 F   0  0  0  0  0  0  0  0  0  0  0  0
   -5.7990    7.0442    0.0000 F   0  0  0  0  0  0  0  0  0  0  0  0
   -3.7500    6.4952    0.0000 C   0  0  0  0  0  0  0  0  0  0  0  0
   -5.0490    5.7452    0.0000 F   0  0  0  0  0  0  0  0  0  0  0  0
   -2.4510    7.2452    0.0000 F   0  0  0  0  0  0  0  0  0  0  0  0
   -3.0000    5.1962    0.0000 C   0  0  0  0  0  0  0  0  0  0  0  0
   -1.7010    5.9462    0.0000 F   0  0  0  0  0  0  0  0  0  0  0  0
   -4.2990    4.4462    0.0000 F   0  0  0  0  0  0  0  0  0  0  0  0
   -2.2500    3.8971    0.0000 C   0  0  0  0  0  0  0  0  0  0  0  0
   -3.5490    3.1471    0.0000 F   0  0  0  0  0  0  0  0  0  0  0  0
   -0.9510    4.6471    0.0000 F   0  0  0  0  0  0  0  0  0  0  0  0
   -1.5000    2.5981    0.0000 C   0  0  0  0  0  0  0  0  0  0  0  0
   -0.2010    3.3481    0.0000 F   0  0  0  0  0  0  0  0  0  0  0  0
   -2.7990    1.8481    0.0000 F   0  0  0  0  0  0  0  0  0  0  0  0
   -0.7500    1.2990    0.0000 C   0  0  0  0  0  0  0  0  0  0  0  0
   -2.0490    0.5490    0.0000 F   0  0  0  0  0  0  0  0  0  0  0  0
    0.5490    2.0490    0.0000 F   0  0  0  0  0  0  0  0  0  0  0  0
    0.0000    0.0000    0.0000 C   0  0  0  0  0  0  0  0  0  0  0  0
   -0.7500   -1.2990    0.0000 F   0  0  0  0  0  0  0  0  0  0  0  0
    1.5000    0.0000    0.0000 C   0  0  0  0  0  0  0  0  0  0  0  0
    2.2500    1.2990    0.0000 F   0  0  0  0  0  0  0  0  0  0  0  0
    2.2500   -1.2990    0.0000 C   0  0  0  0  0  0  0  0  0  0  0  0
    3.0000   -2.5981    0.0000 F   0  0  0  0  0  0  0  0  0  0  0  0
    3.5490   -0.5490    0.0000 F   0  0  0  0  0  0  0  0  0  0  0  0
    0.9510   -2.0490    0.0000 F   0  0  0  0  0  0  0  0  0  0  0  0
  1  2  2  0
  2  3  2  0
  2  4  1  0
  2  5  1  0
  5  6  1  0
  5  7  1  0
  5  8  1  0
  8  9  1  0
  8 10  1  0
  8 11  1  0
 11 12  1  0
 11 13  1  0
 11 14  1  0
 14 15  1  0
 14 16  1  0
 14 17  1  0
 17 18  1  0
 17 19  1  0
 17 20  1  0
 20 21  1  0
 20 22  1  0
 20 23  1  0
 23 24  1  0
 23 25  1  0
 23 26  1  0
 26 27  1  0
 26 28  1  0
 26 29  1  0
 29 30  1  0
 29 31  2  0
 31 32  1  0
 31 33  1  0
 33 34  1  0
 33 35  1  0
 33 36  1  0
M  END
$$$$

     RDKit          2D

 48 47  0  0  0  0  0  0  0  0999 V2000
    0.0000    0.0000    0.0000 C   0  0  0  0  0  0  0  0  0  0  0  0
    1.2990    0.7500    0.0000 C   0  0  0  0  0  0  0  0  0  0  0  0
    2.5981    1.5000    0.0000 C   0  0  0  0  0  0  0  0  0  0  0  0
    2.0490   -0.5490    0.0000 C   0  0  0  0  0  0  0  0  0  0  0  0
    3.5490   -0.5490    0.0000 S   0  0  0  0  0  0  0  0  0  0  0  0
    3.5490   -2.0490    0.0000 O   0  0  0  0  0  0  0  0  0  0  0  0
    3.5490    0.9510    0.0000 O   0  0  0  0  0  0  0  0  0  0  0  0
    5.0490   -0.5490    0.0000 O   0  0  0  0  0  0  0  0  0  0  0  0
    0.5490    2.0490    0.0000 N   0  0  0  0  0  0  0  0  0  0  0  0
    1.2990    3.3481    0.0000 C   0  0  0  0  0  0  0  0  0  0  0  0
    2.7990    3.3481    0.0000 O   0  0  0  0  0  0  0  0  0  0  0  0
    0.5490    4.6471    0.0000 C   0  0  0  0  0  0  0  0  0  0  0  0
    1.2990    5.9462    0.0000 C   0  0  0  0  0  0  0  0  0  0  0  0
    0.5490    7.2452    0.0000 S   0  0  0  0  0  0  0  0  0  0  0  0
   -0.9510    7.2452    0.0000 O   0  0  0  0  0  0  0  0  0  0  0  0
    1.2990    8.5442    0.0000 C   0  0  0  0  0  0  0  0  0  0  0  0
    0.5490    9.8433    0.0000 C   0  0  0  0  0  0  0  0  0  0  0  0
    1.2990   11.1423    0.0000 C   0  0  0  0  0  0  0  0  0  0  0  0
    0.0000   11.8923    0.0000 F   0  0  0  0  0  0  0  0  0  0  0  0
    2.5981   10.3923    0.0000 F   0  0  0  0  0  0  0  0  0  0  0  0
    2.0490   12.4413    0.0000 C   0  0  0  0  0  0  0  0  0  0  0  0
    3.3481   11.6913    0.0000 F   0  0  0  0  0  0  0  0  0  0  0  0
    0.7500   13.1913    0.0000 F   0  0  0  0  0  0  0  0  0  0  0  0
    2.7990   13.7404    0.0000 C   0  0  0  0  0  0  0  0  0  0  0  0
    1.5000   14.4904    0.0000 F   0  0  0  0  0  0  0  0  0  0  0  0
    4.0981   12.9904    0.0000 F   0  0  0  0  0  0  0  0  0  0  0  0
    3.5490   15.0394    0.0000 C   0  0  0  0  0  0  0  0  0  0  0  0
    4.8481   14.2894    0.0000 F   0  0  0  0  0  0  0  0  0  0  0  0
    2.2500   15.7894    0.0000 F   0  0  0  0  0  0  0  0  0  0  0  0
    4.2990   16.3385    0.0000 C   0  0  0  0  0  0  0  0  0  0  0  0
    3.0000   17.0885    0.0000 F   0  0  0  0  0  0  0  0  0  0  0  0
    5.5981   15.5885    0.0000 F   0  0  0  0  0  0  0  0  0  0  0  0
    5.0490   17.6375    0.0000 C   0  0  0  0  0  0  0  0  0  0  0  0
    6.3481   16.8875    0.0000 F   0  0  0  0  0  0  0  0  0  0  0  0
    3.7500   18.3875    0.0000 F   0  0  0  0  0  0  0  0  0  0  0  0
    5.7990   18.9365    0.0000 C   0  0  0  0  0  0  0  0  0  0  0  0
    4.5000   19.6865    0.0000 F   0  0  0  0  0  0  0  0  0  0  0  0
    7.0981   18.1865    0.0000 F   0  0  0  0  0  0  0  0  0  0  0  0
    6.5490   20.2356    0.0000 C   0  0  0  0  0  0  0  0  0  0  0  0
    7.8481   19.4856    0.0000 F   0  0  0  0  0  0  0  0  0  0  0  0
    5.2500   20.9856    0.0000 F   0  0  0  0  0  0  0  0  0  0  0  0
    7.2990   21.5346    0.0000 C   0  0  0  0  0  0  0  0  0  0  0  0
    6.0000   22.2846    0.0000 F   0  0  0  0  0  0  0  0  0  0  0  0
    8.5981   20.7846    0.0000 F   0  0  0  0  0  0  0  0  0  0  0  0
    8.0490   22.8336    0.0000 C   0  0  0  0  0  0  0  0  0  0  0  0
    8.7990   24.1327    0.0000 F   0  0  0  0  0  0  0  0  0  0  0  0
    9.3481   22.0836    0.0000 F   0  0  0  0  0  0  0  0  0  0  0  0
    6.7500   23.5836    0.0000 F   0  0  0  0  0  0  0  0  0  0  0  0
  1  2  1  0
  2  3  1  0
  2  4  1  0
  4  5  1  0
  5  6  2  0
  5  7  2  0
  5  8  1  0
  2  9  1  0
  9 10  1  0
 10 11  2  0
 10 12  1  0
 12 13  1  0
 13 14  1  0
 14 15  2  0
 14 16  1  0
 16 17  1  0
 17 18  1  0
 18 19  1  0
 18 20  1  0
 18 21  1  0
 21 22  1  0
 21 23  1  0
 21 24  1  0
 24 25  1  0
 24 26  1  0
 24 27  1  0
 27 28  1  0
 27 29  1  0
 27 30  1  0
 30 31  1  0
 30 32  1  0
 30 33  1  0
 33 34  1  0
 33 35  1  0
 33 36  1  0
 36 37  1  0
 36 38  1  0
 36 39  1  0
 39 40  1  0
 39 41  1  0
 39 42  1  0
 42 43  1  0
 42 44  1  0
 42 45  1  0
 45 46  1  0
 45 47  1  0
 45 48  1  0
M  CHG  1   8  -1
M  END
$$$$

     RDKit          2D

 21 20  0  0  0  0  0  0  0  0999 V2000
    0.0000    0.0000    0.0000 C   0  0  0  0  0  0  0  0  0  0  0  0
    1.2990    0.7500    0.0000 N   0  0  0  0  0  0  0  0  0  0  0  0
    2.5981    1.5000    0.0000 C   0  0  0  0  0  0  0  0  0  0  0  0
    2.0490   -0.5490    0.0000 C   0  0  0  0  0  0  0  0  0  0  0  0
    0.5490    2.0490    0.0000 C   0  0  0  0  0  0  0  0  0  0  0  0
    1.2990    3.3481    0.0000 C   0  0  0  0  0  0  0  0  0  0  0  0
    0.5490    4.6471    0.0000 C   0  0  0  0  0  0  0  0  0  0  0  0
    1.2990    5.9462    0.0000 N   0  0  0  0  0  0  0  0  0  0  0  0
    0.5490    7.2452    0.0000 S   0  0  0  0  0  0  0  0  0  0  0  0
   -0.7500    6.4952    0.0000 O   0  0  0  0  0  0  0  0  0  0  0  0
    1.2828    7.5566    0.0000 O   0  0  0  0  0  0  0  0  0  0  0  0
   -0.2010    8.5442    0.0000 C   0  0  0  0  0  0  0  0  0  0  0  0
   -1.5000    7.7942    0.0000 F   0  0  0  0  0  0  0  0  0  0  0  0
   -0.9510    9.8433    0.0000 F   0  0  0  0  0  0  0  0  0  0  0  0
    1.0981    9.2942    0.0000 C   0  0  0  0  0  0  0  0  0  0  0  0
    1.6311    8.5869    0.0000 F   0  0  0  0  0  0  0  0  0  0  0  0
    0.3481   10.5933    0.0000 F   0  0  0  0  0  0  0  0  0  0  0  0
    2.3971   10.0442    0.0000 C   0  0  0  0  0  0  0  0  0  0  0  0
    3.6962   10.7942    0.0000 F   0  0  0  0  0  0  0  0  0  0  0  0
    1.6471   11.3433    0.0000 F   0  0  0  0  0  0  0  0  0  0  0  0
    3.1471    8.7452    0.0000 F   0  0  0  0  0  0  0  0  0  0  0  0
  1  2  1  0
  2  3  1  0
  2  4  1  0
  2  5  1  0
  5  6  1  0
  6  7  1  0
  7  8  1  0
  8  9  1  0
  9 10  2  0
  9 11  2  0
  9 12  1  0
 12 13  1  0
 12 14  1  0
 12 15  1  0
 15 16  1  0
 15 17  1  0
 15 18  1  0
 18 19  1  0
 18 20  1  0
 18 21  1  0
M  CHG  1   2   1
M  END
$$$$

     RDKit          2D

 36 35  0  0  0  0  0  0  0  0999 V2000
    7.0981    4.0981    0.0000 C   0  0  0  0  0  0  0  0  0  0  0  0
    5.7990    3.3481    0.0000 N   0  0  0  0  0  0  0  0  0  0  0  0
    4.5000    2.5981    0.0000 C   0  0  0  0  0  0  0  0  0  0  0  0
    6.5490    2.0490    0.0000 C   0  0  0  0  0  0  0  0  0  0  0  0
    5.7990    0.7500    0.0000 C   0  0  0  0  0  0  0  0  0  0  0  0
    6.5490   -0.5490    0.0000 C   0  0  0  0  0  0  0  0  0  0  0  0
    5.7990   -1.8481    0.0000 N   0  0  0  0  0  0  0  0  0  0  0  0
    6.5490   -3.1471    0.0000 S   0  0  0  0  0  0  0  0  0  0  0  0
    7.8481   -2.3971    0.0000 O   0  0  0  0  0  0  0  0  0  0  0  0
    5.8152   -3.4586    0.0000 O   0  0  0  0  0  0  0  0  0  0  0  0
    7.2990   -4.4462    0.0000 C   0  0  0  0  0  0  0  0  0  0  0  0
    8.5981   -3.6962    0.0000 F   0  0  0  0  0  0  0  0  0  0  0  0
    8.0490   -5.7452    0.0000 F   0  0  0  0  0  0  0  0  0  0  0  0
    6.0000   -5.1962    0.0000 C   0  0  0  0  0  0  0  0  0  0  0  0
    5.4669   -4.4888    0.0000 F   0  0  0  0  0  0  0  0  0  0  0  0
    6.7500   -6.4952    0.0000 F   0  0  0  0  0  0  0  0  0  0  0  0
    4.7010   -5.9462    0.0000 C   0  0  0  0  0  0  0  0  0  0  0  0
    5.4510   -7.2452    0.0000 F   0  0  0  0  0  0  0  0  0  0  0  0
    3.9510   -4.6471    0.0000 F   0  0  0  0  0  0  0  0  0  0  0  0
    3.4019   -6.6962    0.0000 C   0  0  0  0  0  0  0  0  0  0  0  0
    4.1519   -7.9952    0.0000 F   0  0  0  0  0  0  0  0  0  0  0  0
    2.6519   -5.3971    0.0000 F   0  0  0  0  0  0  0  0  0  0  0  0
    2.1029   -7.4462    0.0000 C   0  0  0  0  0  0  0  0  0  0  0  0
    1.3529   -6.1471    0.0000 F   0  0  0  0  0  0  0  0  0  0  0  0
    2.8529   -8.7452    0.0000 F   0  0  0  0  0  0  0  0  0  0  0  0
    0.8038   -8.1962    0.0000 C   0  0  0  0  0  0  0  0  0  0  0  0
   -0.4952   -8.9462    0.0000 F   0  0  0  0  0  0  0  0  0  0  0  0
    1.5538   -9.4952    0.0000 F   0  0  0  0  0  0  0  0  0  0  0  0
    0.0538   -6.8971    0.0000 F   0  0  0  0  0  0  0  0  0  0  0  0
    5.0490    4.6471    0.0000 C   0  0  0  0  0  0  0  0  0  0  0  0
    3.5490    4.6471    0.0000 C   0  0  0  0  0  0  0  0  0  0  0  0
    2.7990    5.9462    0.0000 C   0  0  0  0  0  0  0  0  0  0  0  0
    1.2990    5.9462    0.0000 S   0  0  0  0  0  0  0  0  0  0  0  0
    1.2990    7.4462    0.0000 O   0  0  0  0  0  0  0  0  0  0  0  0
    1.2990    4.4462    0.0000 O   0  0  0  0  0  0  0  0  0  0  0  0
   -0.2010    5.9462    0.0000 O   0  0  0  0  0  0  0  0  0  0  0  0
  1  2  1  0
  2  3  1  0
  2  4  1  0
  4  5  1  0
  5  6  1  0
  6  7  1  0
  7  8  1  0
  8  9  2  0
  8 10  2  0
  8 11  1  0
 11 12  1  0
 11 13  1  0
 11 14  1  0
 14 15  1  0
 14 16  1  0
 14 17  1  0
 17 18  1  0
 17 19  1  0
 17 20  1  0
 20 21  1  0
 20 22  1  0
 20 23  1  0
 23 24  1  0
 23 25  1  0
 23 26  1  0
 26 27  1  0
 26 28  1  0
 26 29  1  0
  2 30  1  0
 30 31  1  0
 31 32  1  0
 32 33  1  0
 33 34  2  0
 33 35  2  0
 33 36  1  0
M  CHG  1   2   1
M  END
$$$$

     RDKit          2D

 21 19  0  0  0  0  0  0  0  0999 V2000
    1.1979   -2.4028    0.0000 O   0  0  0  0  0  0  0  0  0  0  0  0
    0.0000   -1.5000    0.0000 S   0  0  0  0  0  0  0  0  0  0  0  0
   -1.2990   -2.2500    0.0000 O   0  0  0  0  0  0  0  0  0  0  0  0
    0.0000    0.0000    0.0000 C   0  0  0  0  0  0  0  0  0  0  0  0
   -1.5000    0.0000    0.0000 F   0  0  0  0  0  0  0  0  0  0  0  0
    0.0000    1.5000    0.0000 F   0  0  0  0  0  0  0  0  0  0  0  0
    1.5000    0.0000    0.0000 C   0  0  0  0  0  0  0  0  0  0  0  0
    1.6828   -1.4888    0.0000 F   0  0  0  0  0  0  0  0  0  0  0  0
    1.5000    1.5000    0.0000 F   0  0  0  0  0  0  0  0  0  0  0  0
    3.0000    0.0000    0.0000 O   0  0  0  0  0  0  0  0  0  0  0  0
    3.7500    1.2990    0.0000 C   0  0  0  0  0  0  0  0  0  0  0  0
    2.4510    2.0490    0.0000 F   0  0  0  0  0  0  0  0  0  0  0  0
    5.0490    0.5490    0.0000 F   0  0  0  0  0  0  0  0  0  0  0  0
    4.5000    2.5981    0.0000 C   0  0  0  0  0  0  0  0  0  0  0  0
    3.2010    3.3481    0.0000 F   0  0  0  0  0  0  0  0  0  0  0  0
    5.7990    1.8481    0.0000 F   0  0  0  0  0  0  0  0  0  0  0  0
    5.2500    3.8971    0.0000 C   0  0  0  0  0  0  0  0  0  0  0  0
    6.0000    5.1962    0.0000 F   0  0  0  0  0  0  0  0  0  0  0  0
    6.5490    3.1471    0.0000 F   0  0  0  0  0  0  0  0  0  0  0  0
    3.9510    4.6471    0.0000 F   0  0  0  0  0  0  0  0  0  0  0  0
    0.0000    6.1962    0.0000 Na  0  0  0  0  0 15  0  0  0  0  0  0
  1  2  2  0
  2  3  1  0
  2  4  1  0
  4  5  1  0
  4  6  1  0
  4  7  1  0
  7  8  1  0
  7  9  1  0
  7 10  1  0
 10 11  1  0
 11 12  1  0
 11 13  1  0
 11 14  1  0
 14 15  1  0
 14 16  1  0
 14 17  1  0
 17 18  1  0
 17 19  1  0
 17 20  1  0
M  CHG  2   3  -1  21   1
M  END
$$$$

     RDKit          2D

 32 32  0  0  0  0  0  0  0  0999 V2000
   18.8660   -2.5981    0.0000 F   0  0  0  0  0  0  0  0  0  0  0  0
   17.3660   -2.5981    0.0000 C   0  0  0  0  0  0  0  0  0  0  0  0
   17.3660   -1.0981    0.0000 F   0  0  0  0  0  0  0  0  0  0  0  0
   17.3660   -4.0981    0.0000 F   0  0  0  0  0  0  0  0  0  0  0  0
   15.8660   -2.5981    0.0000 C   0  0  0  0  0  0  0  0  0  0  0  0
   15.8660   -4.0981    0.0000 F   0  0  0  0  0  0  0  0  0  0  0  0
   15.8660   -1.0981    0.0000 F   0  0  0  0  0  0  0  0  0  0  0  0
   14.3660   -2.5981    0.0000 C   0  0  0  0  0  0  0  0  0  0  0  0
   14.3660   -1.0981    0.0000 F   0  0  0  0  0  0  0  0  0  0  0  0
   14.3660   -4.0981    0.0000 F   0  0  0  0  0  0  0  0  0  0  0  0
   12.8660   -2.5981    0.0000 C   0  0  0  0  0  0  0  0  0  0  0  0
   12.8660   -4.0981    0.0000 F   0  0  0  0  0  0  0  0  0  0  0  0
   12.8660   -1.0981    0.0000 F   0  0  0  0  0  0  0  0  0  0  0  0
   11.3660   -2.5981    0.0000 C   0  0  0  0  0  0  0  0  0  0  0  0
   11.3660   -1.0981    0.0000 F   0  0  0  0  0  0  0  0  0  0  0  0
   11.3660   -4.0981    0.0000 F   0  0  0  0  0  0  0  0  0  0  0  0
    9.8660   -2.5981    0.0000 C   0  0  0  0  0  0  0  0  0  0  0  0
    9.8660   -4.0981    0.0000 F   0  0  0  0  0  0  0  0  0  0  0  0
    9.8660   -1.0981    0.0000 F   0  0  0  0  0  0  0  0  0  0  0  0
    8.3660   -2.5981    0.0000 C   0  0  0  0  0  0  0  0  0  0  0  0
    8.3660   -1.0981    0.0000 F   0  0  0  0  0  0  0  0  0  0  0  0
    8.3660   -4.0981    0.0000 F   0  0  0  0  0  0  0  0  0  0  0  0
    6.8660   -2.5981    0.0000 C   0  0  0  0  0  0  0  0  0  0  0  0
    6.8660   -4.0981    0.0000 F   0  0  0  0  0  0  0  0  0  0  0  0
    6.8660   -1.0981    0.0000 F   0  0  0  0  0  0  0  0  0  0  0  0
    5.3660   -2.5981    0.0000 C   0  0  0  0  0  0  0  0  0  0  0  0
    4.6160   -1.2990    0.0000 C   0  0  0  0  0  0  0  0  0  0  0  0
    3.1160   -1.2990    0.0000 O   0  0  0  0  0  0  0  0  0  0  0  0
    2.3660    0.0000    0.0000 C   0  0  0  0  0  0  0  0  0  0  0  0
    0.8660    0.0000    0.0000 C   0  0  0  0  0  0  0  0  0  0  0  0
   -0.4330    0.7500    0.0000 C   0  0  0  0  0  0  0  0  0  0  0  0
   -0.4330   -0.7500    0.0000 O   0  0  0  0  0  0  0  0  0  0  0  0
  1  2  1  0
  2  3  1  0
  2  4  1  0
  2  5  1  0
  5  6  1  0
  5  7  1  0
  5  8  1  0
  8  9  1  0
  8 10  1  0
  8 11  1  0
 11 12  1  0
 11 13  1  0
 11 14  1  0
 14 15  1  0
 14 16  1  0
 14 17  1  0
 17 18  1  0
 17 19  1  0
 17 20  1  0
 20 21  1  0
 20 22  1  0
 20 23  1  0
 23 24  1  0
 23 25  1  0
 23 26  1  0
 26 27  1  0
 27 28  1  0
 28 29  1  0
 29 30  1  0
 30 31  1  0
 31 32  1  0
 32 30  1  0
M  END
$$$$

     RDKit          2D

 21 19  0  0  0  0  0  0  0  0999 V2000
    1.0000   -1.5000    0.0000 O   0  0  0  0  0  0  0  0  0  0  0  0
    2.5000   -1.5000    0.0000 S   0  0  0  0  0  0  0  0  0  0  0  0
    3.2912   -1.5972    0.0000 O   0  0  0  0  0  0  0  0  0  0  0  0
    2.5000   -3.0000    0.0000 O   0  0  0  0  0  0  0  0  0  0  0  0
    2.5000    0.0000    0.0000 C   0  0  0  0  0  0  0  0  0  0  0  0
    1.0000    0.0000    0.0000 F   0  0  0  0  0  0  0  0  0  0  0  0
    2.5000    1.5000    0.0000 F   0  0  0  0  0  0  0  0  0  0  0  0
    4.0000    0.0000    0.0000 C   0  0  0  0  0  0  0  0  0  0  0  0
    4.0000    1.5000    0.0000 F   0  0  0  0  0  0  0  0  0  0  0  0
    4.1080   -0.8791    0.0000 F   0  0  0  0  0  0  0  0  0  0  0  0
    5.5000    0.0000    0.0000 C   0  0  0  0  0  0  0  0  0  0  0  0
    5.5000   -1.5000    0.0000 F   0  0  0  0  0  0  0  0  0  0  0  0
    5.5000    1.5000    0.0000 F   0  0  0  0  0  0  0  0  0  0  0  0
    7.0000    0.0000    0.0000 C   0  0  0  0  0  0  0  0  0  0  0  0
    7.0000   -1.5000    0.0000 F   0  0  0  0  0  0  0  0  0  0  0  0
    7.0000    1.5000    0.0000 F   0  0  0  0  0  0  0  0  0  0  0  0
    8.5000    0.0000    0.0000 C   0  0  0  0  0  0  0  0  0  0  0  0
   10.0000    0.0000    0.0000 F   0  0  0  0  0  0  0  0  0  0  0  0
    8.5000    1.5000    0.0000 F   0  0  0  0  0  0  0  0  0  0  0  0
    8.5000   -1.5000    0.0000 F   0  0  0  0  0  0  0  0  0  0  0  0
    0.0000    0.0000    0.0000 Li  0  0  0  0  0 15  0  0  0  0  0  0
  1  2  2  0
  2  3  2  0
  2  4  1  0
  2  5  1  0
  5  6  1  0
  5  7  1  0
  5  8  1  0
  8  9  1  0
  8 10  1  0
  8 11  1  0
 11 12  1  0
 11 13  1  0
 11 14  1  0
 14 15  1  0
 14 16  1  0
 14 17  1  0
 17 18  1  0
 17 19  1  0
 17 20  1  0
M  CHG  2   4  -1  21   1
M  END
$$$$

     RDKit          2D

 25 22  0  0  0  0  0  0  0  0999 V2000
   -2.5981    1.5000    0.0000 O   0  0  0  0  0  0  0  0  0  0  0  0
   -1.2990    0.7500    0.0000 P   0  0  0  0  0  0  0  0  0  0  0  0
   -2.0490   -0.5490    0.0000 O   0  0  0  0  0  0  0  0  0  0  0  0
   -0.5490    2.0490    0.0000 O   0  0  0  0  0  0  0  0  0  0  0  0
    0.0000    0.0000    0.0000 C   0  0  0  0  0  0  0  0  0  0  0  0
    1.2990    0.7500    0.0000 C   0  0  0  0  0  0  0  0  0  0  0  0
    2.5981   -0.0000    0.0000 C   0  0  0  0  0  0  0  0  0  0  0  0
    1.8481   -1.2990    0.0000 F   0  0  0  0  0  0  0  0  0  0  0  0
    3.3481    1.2990    0.0000 F   0  0  0  0  0  0  0  0  0  0  0  0
    3.8971   -0.7500    0.0000 C   0  0  0  0  0  0  0  0  0  0  0  0
    3.8971   -2.2500    0.0000 C   0  0  0  0  0  0  0  0  0  0  0  0
    5.3971   -2.2500    0.0000 F   0  0  0  0  0  0  0  0  0  0  0  0
    2.3971   -2.2500    0.0000 F   0  0  0  0  0  0  0  0  0  0  0  0
    3.8971   -3.7500    0.0000 C   0  0  0  0  0  0  0  0  0  0  0  0
    2.3971   -3.7500    0.0000 F   0  0  0  0  0  0  0  0  0  0  0  0
    5.3971   -3.7500    0.0000 F   0  0  0  0  0  0  0  0  0  0  0  0
    3.8971   -5.2500    0.0000 C   0  0  0  0  0  0  0  0  0  0  0  0
    5.3971   -5.2500    0.0000 F   0  0  0  0  0  0  0  0  0  0  0  0
    2.3971   -5.2500    0.0000 F   0  0  0  0  0  0  0  0  0  0  0  0
    3.8971   -6.7500    0.0000 C   0  0  0  0  0  0  0  0  0  0  0  0
    3.8971   -8.2500    0.0000 F   0  0  0  0  0  0  0  0  0  0  0  0
    2.3971   -6.7500    0.0000 F   0  0  0  0  0  0  0  0  0  0  0  0
    5.3971   -6.7500    0.0000 F   0  0  0  0  0  0  0  0  0  0  0  0
    6.3971    0.0000    0.0000 N   0  0  0  0  0  0  0  0  0  0  0  0
    7.3971    0.0000    0.0000 N   0  0  0  0  0  0  0  0  0  0  0  0
  1  2  2  0
  2  3  1  0
  2  4  1  0
  2  5  1  0
  5  6  1  0
  6  7  1  0
  7  8  1  0
  7  9  1  0
  7 10  1  0
 10 11  1  0
 11 12  1  0
 11 13  1  0
 11 14  1  0
 14 15  1  0
 14 16  1  0
 14 17  1  0
 17 18  1  0
 17 19  1  0
 17 20  1  0
 20 21  1  0
 20 22  1  0
 20 23  1  0
M  CHG  4   3  -1   4  -1  24   1  25   1
M  END
$$$$

     RDKit          2D

 60 58  0  0  0  0  0  0  0  0999 V2000
    0.0000    0.0000    0.0000 C   0  0  0  0  0  0  0  0  0  0  0  0
    1.2990    0.7500    0.0000 C   0  0  0  0  0  0  0  0  0  0  0  0
    2.5981   -0.0000    0.0000 N   0  0  0  0  0  0  0  0  0  0  0  0
    3.8971    0.7500    0.0000 C   0  0  0  0  0  0  0  0  0  0  0  0
    5.1962   -0.0000    0.0000 C   0  0  0  0  0  0  0  0  0  0  0  0
    6.4952    0.7500    0.0000 O   0  0  0  0  0  0  0  0  0  0  0  0
    7.7942   -0.0000    0.0000 P   0  0  0  0  0  0  0  0  0  0  0  0
    7.0442   -1.2990    0.0000 O   0  0  0  0  0  0  0  0  0  0  0  0
    8.5442    1.2990    0.0000 O   0  0  0  0  0  0  0  0  0  0  0  0
    9.0933   -0.7500    0.0000 O   0  0  0  0  0  0  0  0  0  0  0  0
    9.0933   -2.2500    0.0000 C   0  0  0  0  0  0  0  0  0  0  0  0
   10.3923   -3.0000    0.0000 C   0  0  0  0  0  0  0  0  0  0  0  0
   10.3923   -4.5000    0.0000 N   0  0  0  0  0  0  0  0  0  0  0  0
   11.6913   -5.2500    0.0000 C   0  0  0  0  0  0  0  0  0  0  0  0
   11.6913   -6.7500    0.0000 C   0  0  0  0  0  0  0  0  0  0  0  0
    9.0933   -5.2500    0.0000 S   0  0  0  0  0  0  0  0  0  0  0  0
    8.3433   -3.9510    0.0000 O   0  0  0  0  0  0  0  0  0  0  0  0
    9.5730   -5.8866    0.0000 O   0  0  0  0  0  0  0  0  0  0  0  0
    7.7942   -6.0000    0.0000 C   0  0  0  0  0  0  0  0  0  0  0  0
    7.0442   -4.7010    0.0000 F   0  0  0  0  0  0  0  0  0  0  0  0
    6.4952   -6.7500    0.0000 F   0  0  0  0  0  0  0  0  0  0  0  0
    8.5442   -7.2990    0.0000 C   0  0  0  0  0  0  0  0  0  0  0  0
    9.3596   -6.9530    0.0000 F   0  0  0  0  0  0  0  0  0  0  0  0
    7.2452   -8.0490    0.0000 F   0  0  0  0  0  0  0  0  0  0  0  0
    9.2942   -8.5981    0.0000 C   0  0  0  0  0  0  0  0  0  0  0  0
   10.5933   -7.8481    0.0000 F   0  0  0  0  0  0  0  0  0  0  0  0
    7.9952   -9.3481    0.0000 F   0  0  0  0  0  0  0  0  0  0  0  0
   10.0442   -9.8971    0.0000 C   0  0  0  0  0  0  0  0  0  0  0  0
   11.3433   -9.1471    0.0000 F   0  0  0  0  0  0  0  0  0  0  0  0
    8.7452  -10.6471    0.0000 F   0  0  0  0  0  0  0  0  0  0  0  0
   10.7942  -11.1962    0.0000 C   0  0  0  0  0  0  0  0  0  0  0  0
   12.0933  -10.4462    0.0000 F   0  0  0  0  0  0  0  0  0  0  0  0
    9.4952  -11.9462    0.0000 F   0  0  0  0  0  0  0  0  0  0  0  0
   11.5442  -12.4952    0.0000 C   0  0  0  0  0  0  0  0  0  0  0  0
   12.2942  -13.7942    0.0000 F   0  0  0  0  0  0  0  0  0  0  0  0
   12.8433  -11.7452    0.0000 F   0  0  0  0  0  0  0  0  0  0  0  0
   10.2452  -13.2452    0.0000 F   0  0  0  0  0  0  0  0  0  0  0  0
    2.5981   -1.5000    0.0000 S   0  0  0  0  0  0  0  0  0  0  0  0
    1.1093   -1.3172    0.0000 O   0  0  0  0  0  0  0  0  0  0  0  0
    4.0981   -1.5000    0.0000 O   0  0  0  0  0  0  0  0  0  0  0  0
    2.5981   -3.0000    0.0000 C   0  0  0  0  0  0  0  0  0  0  0  0
    4.0981   -3.0000    0.0000 F   0  0  0  0  0  0  0  0  0  0  0  0
    2.5981   -4.5000    0.0000 F   0  0  0  0  0  0  0  0  0  0  0  0
    1.0981   -3.0000    0.0000 C   0  0  0  0  0  0  0  0  0  0  0  0
    0.9152   -1.5112    0.0000 F   0  0  0  0  0  0  0  0  0  0  0  0
    1.0981   -4.5000    0.0000 F   0  0  0  0  0  0  0  0  0  0  0  0
   -0.4019   -3.0000    0.0000 C   0  0  0  0  0  0  0  0  0  0  0  0
   -0.4019   -1.5000    0.0000 F   0  0  0  0  0  0  0  0  0  0  0  0
   -0.4019   -4.5000    0.0000 F   0  0  0  0  0  0  0  0  0  0  0  0
   -1.9019   -3.0000    0.0000 C   0  0  0  0  0  0  0  0  0  0  0  0
   -1.9019   -1.5000    0.0000 F   0  0  0  0  0  0  0  0  0  0  0  0
   -1.9019   -4.5000    0.0000 F   0  0  0  0  0  0  0  0  0  0  0  0
   -3.4019   -3.0000    0.0000 C   0  0  0  0  0  0  0  0  0  0  0  0
   -3.4019   -4.5000    0.0000 F   0  0  0  0  0  0  0  0  0  0  0  0
   -3.4019   -1.5000    0.0000 F   0  0  0  0  0  0  0  0  0  0  0  0
   -4.9019   -3.0000    0.0000 C   0  0  0  0  0  0  0  0  0  0  0  0
   -6.4019   -3.0000    0.0000 F   0  0  0  0  0  0  0  0  0  0  0  0
   -4.9019   -1.5000    0.0000 F   0  0  0  0  0  0  0  0  0  0  0  0
   -4.9019   -4.5000    0.0000 F   0  0  0  0  0  0  0  0  0  0  0  0
    0.0000    2.2990    0.0000 N   0  0  0  0  0  0  0  0  0  0  0  0
  1  2  1  0
  2  3  1  0
  3  4  1  0
  4  5  1  0
  5  6  1  0
  6  7  1  0
  7  8  2  0
  7  9  1  0
  7 10  1  0
 10 11  1  0
 11 12  1  0
 12 13  1  0
 13 14  1  0
 14 15  1  0
 13 16  1  0
 16 17  2  0
 16 18  2  0
 16 19  1  0
 19 20  1  0
 19 21  1  0
 19 22  1  0
 22 23  1  0
 22 24  1  0
 22 25  1  0
 25 26  1  0
 25 27  1  0
 25 28  1  0
 28 29  1  0
 28 30  1  0
 28 31  1  0
 31 32  1  0
 31 33  1  0
 31 34  1  0
 34 35  1  0
 34 36  1  0
 34 37  1  0
  3 38  1  0
 38 39  2  0
 38 40  2  0
 38 41  1  0
 41 42  1  0
 41 43  1  0
 41 44  1  0
 44 45  1  0
 44 46  1  0
 44 47  1  0
 47 48  1  0
 47 49  1  0
 47 50  1  0
 50 51  1  0
 50 52  1  0
 50 53  1  0
 53 54  1  0
 53 55  1  0
 53 56  1  0
 56 57  1  0
 56 58  1  0
 56 59  1  0
M  CHG  2   9  -1  60   1
M  END
$$$$

     RDKit          2D

 35 34  0  0  0  0  0  0  0  0999 V2000
    0.0000    0.0000    0.0000 C   0  0  0  0  0  0  0  0  0  0  0  0
    1.2990    0.7500    0.0000 N   0  0  0  0  0  0  0  0  0  0  0  0
    0.5490    2.0490    0.0000 C   0  0  0  0  0  0  0  0  0  0  0  0
    1.2990    3.3481    0.0000 C   0  0  0  0  0  0  0  0  0  0  0  0
    0.5490    4.6471    0.0000 O   0  0  0  0  0  0  0  0  0  0  0  0
    2.5981    1.5000    0.0000 C   0  0  0  0  0  0  0  0  0  0  0  0
    2.5981    3.0000    0.0000 C   0  0  0  0  0  0  0  0  0  0  0  0
    3.8971    3.7500    0.0000 C   0  0  0  0  0  0  0  0  0  0  0  0
    3.8971    5.2500    0.0000 N   0  0  0  0  0  0  0  0  0  0  0  0
    5.1962    6.0000    0.0000 S   0  0  0  0  0  0  0  0  0  0  0  0
    5.9462    4.7010    0.0000 O   0  0  0  0  0  0  0  0  0  0  0  0
    4.7164    6.6366    0.0000 O   0  0  0  0  0  0  0  0  0  0  0  0
    6.4952    6.7500    0.0000 C   0  0  0  0  0  0  0  0  0  0  0  0
    7.2452    5.4510    0.0000 F   0  0  0  0  0  0  0  0  0  0  0  0
    7.7942    7.5000    0.0000 F   0  0  0  0  0  0  0  0  0  0  0  0
    5.7452    8.0490    0.0000 C   0  0  0  0  0  0  0  0  0  0  0  0
    4.9299    7.7030    0.0000 F   0  0  0  0  0  0  0  0  0  0  0  0
    7.0442    8.7990    0.0000 F   0  0  0  0  0  0  0  0  0  0  0  0
    4.9952    9.3481    0.0000 C   0  0  0  0  0  0  0  0  0  0  0  0
    6.2942   10.0981    0.0000 F   0  0  0  0  0  0  0  0  0  0  0  0
    3.6962    8.5981    0.0000 F   0  0  0  0  0  0  0  0  0  0  0  0
    4.2452   10.6471    0.0000 C   0  0  0  0  0  0  0  0  0  0  0  0
    5.5442   11.3971    0.0000 F   0  0  0  0  0  0  0  0  0  0  0  0
    2.9462    9.8971    0.0000 F   0  0  0  0  0  0  0  0  0  0  0  0
    3.4952   11.9462    0.0000 C   0  0  0  0  0  0  0  0  0  0  0  0
    2.7452   13.2452    0.0000 F   0  0  0  0  0  0  0  0  0  0  0  0
    2.1962   11.1962    0.0000 F   0  0  0  0  0  0  0  0  0  0  0  0
    4.7942   12.6962    0.0000 F   0  0  0  0  0  0  0  0  0  0  0  0
    2.0490   -0.5490    0.0000 C   0  0  0  0  0  0  0  0  0  0  0  0
    3.5490   -0.5490    0.0000 C   0  0  0  0  0  0  0  0  0  0  0  0
    4.2990   -1.8481    0.0000 C   0  0  0  0  0  0  0  0  0  0  0  0
    5.7990   -1.8481    0.0000 S   0  0  0  0  0  0  0  0  0  0  0  0
    5.7990   -3.3481    0.0000 O   0  0  0  0  0  0  0  0  0  0  0  0
    5.7990   -0.3481    0.0000 O   0  0  0  0  0  0  0  0  0  0  0  0
    7.2990   -1.8481    0.0000 O   0  0  0  0  0  0  0  0  0  0  0  0
  1  2  1  0
  2  3  1  0
  3  4  1  0
  4  5  1  0
  2  6  1  0
  6  7  1  0
  7  8  1  0
  8  9  1  0
  9 10  1  0
 10 11  2  0
 10 12  2  0
 10 13  1  0
 13 14  1  0
 13 15  1  0
 13 16  1  0
 16 17  1  0
 16 18  1  0
 16 19  1  0
 19 20  1  0
 19 21  1  0
 19 22  1  0
 22 23  1  0
 22 24  1  0
 22 25  1  0
 25 26  1  0
 25 27  1  0
 25 28  1  0
  2 29  1  0
 29 30  1  0
 30 31  1  0
 31 32  1  0
 32 33  2  0
 32 34  2  0
 32 35  1  0
M  CHG  1   2   1
M  END
$$$$

     RDKit          2D

 33 32  0  0  0  0  0  0  0  0999 V2000
   -0.5078    2.1528    0.0000 O   0  0  0  0  0  0  0  0  0  0  0  0
   -1.2990    2.2500    0.0000 S   0  0  0  0  0  0  0  0  0  0  0  0
   -2.7990    2.2500    0.0000 O   0  0  0  0  0  0  0  0  0  0  0  0
   -1.2990    0.7500    0.0000 N   0  0  0  0  0  0  0  0  0  0  0  0
    0.0000   -0.0000    0.0000 C   0  0  0  0  0  0  0  0  0  0  0  0
    1.2990    0.7500    0.0000 C   0  0  0  0  0  0  0  0  0  0  0  0
    1.4819    2.2388    0.0000 O   0  0  0  0  0  0  0  0  0  0  0  0
    2.5981   -0.0000    0.0000 C   0  0  0  0  0  0  0  0  0  0  0  0
    3.8971    0.7500    0.0000 O   0  0  0  0  0  0  0  0  0  0  0  0
   -2.5981   -0.0000    0.0000 C   0  0  0  0  0  0  0  0  0  0  0  0
   -3.8971    0.7500    0.0000 C   0  0  0  0  0  0  0  0  0  0  0  0
   -3.8971    2.2500    0.0000 O   0  0  0  0  0  0  0  0  0  0  0  0
   -5.1962   -0.0000    0.0000 C   0  0  0  0  0  0  0  0  0  0  0  0
   -6.4952    0.7500    0.0000 O   0  0  0  0  0  0  0  0  0  0  0  0
   -1.2990    3.7500    0.0000 C   0  0  0  0  0  0  0  0  0  0  0  0
   -2.7990    3.7500    0.0000 F   0  0  0  0  0  0  0  0  0  0  0  0
   -1.2990    5.2500    0.0000 F   0  0  0  0  0  0  0  0  0  0  0  0
    0.2010    3.7500    0.0000 C   0  0  0  0  0  0  0  0  0  0  0  0
    0.3089    2.8709    0.0000 F   0  0  0  0  0  0  0  0  0  0  0  0
    0.2010    5.2500    0.0000 F   0  0  0  0  0  0  0  0  0  0  0  0
    1.7010    3.7500    0.0000 C   0  0  0  0  0  0  0  0  0  0  0  0
    1.8838    2.2612    0.0000 F   0  0  0  0  0  0  0  0  0  0  0  0
    1.7010    5.2500    0.0000 F   0  0  0  0  0  0  0  0  0  0  0  0
    3.2010    3.7500    0.0000 C   0  0  0  0  0  0  0  0  0  0  0  0
    3.2010    5.2500    0.0000 F   0  0  0  0  0  0  0  0  0  0  0  0
    3.2010    2.2500    0.0000 F   0  0  0  0  0  0  0  0  0  0  0  0
    4.7010    3.7500    0.0000 C   0  0  0  0  0  0  0  0  0  0  0  0
    4.7010    2.2500    0.0000 F   0  0  0  0  0  0  0  0  0  0  0  0
    4.7010    5.2500    0.0000 F   0  0  0  0  0  0  0  0  0  0  0  0
    6.2010    3.7500    0.0000 C   0  0  0  0  0  0  0  0  0  0  0  0
    7.7010    3.7500    0.0000 F   0  0  0  0  0  0  0  0  0  0  0  0
    6.2010    5.2500    0.0000 F   0  0  0  0  0  0  0  0  0  0  0  0
    6.2010    2.2500    0.0000 F   0  0  0  0  0  0  0  0  0  0  0  0
  1  2  2  0
  2  3  2  0
  2  4  1  0
  4  5  1  0
  5  6  1  0
  6  7  1  0
  6  8  1  0
  8  9  1  0
  4 10  1  0
 10 11  1  0
 11 12  1  0
 11 13  1  0
 13 14  1  0
  2 15  1  0
 15 16  1  0
 15 17  1  0
 15 18  1  0
 18 19  1  0
 18 20  1  0
 18 21  1  0
 21 22  1  0
 21 23  1  0
 21 24  1  0
 24 25  1  0
 24 26  1  0
 24 27  1  0
 27 28  1  0
 27 29  1  0
 27 30  1  0
 30 31  1  0
 30 32  1  0
 30 33  1  0
M  END
$$$$

     RDKit          2D

 33 32  0  0  0  0  0  0  0  0999 V2000
    0.0000    0.0000    0.0000 C   0  0  0  0  0  0  0  0  0  0  0  0
    1.2990    0.7500    0.0000 N   0  0  0  0  0  0  0  0  0  0  0  0
    2.5981    1.5000    0.0000 C   0  0  0  0  0  0  0  0  0  0  0  0
    2.0490   -0.5490    0.0000 C   0  0  0  0  0  0  0  0  0  0  0  0
    3.5490   -0.5490    0.0000 C   0  0  0  0  0  0  0  0  0  0  0  0
    4.2990   -1.8481    0.0000 C   0  0  0  0  0  0  0  0  0  0  0  0
    5.7990   -1.8481    0.0000 C   0  0  0  0  0  0  0  0  0  0  0  0
    6.5490   -3.1471    0.0000 O   0  0  0  0  0  0  0  0  0  0  0  0
    3.5490   -3.1471    0.0000 N   0  0  0  0  0  0  0  0  0  0  0  0
    4.2990   -4.4462    0.0000 S   0  0  0  0  0  0  0  0  0  0  0  0
    5.5981   -3.6962    0.0000 O   0  0  0  0  0  0  0  0  0  0  0  0
    3.5652   -4.7576    0.0000 O   0  0  0  0  0  0  0  0  0  0  0  0
    5.0490   -5.7452    0.0000 C   0  0  0  0  0  0  0  0  0  0  0  0
    6.3481   -4.9952    0.0000 F   0  0  0  0  0  0  0  0  0  0  0  0
    5.7990   -7.0442    0.0000 F   0  0  0  0  0  0  0  0  0  0  0  0
    3.7500   -6.4952    0.0000 C   0  0  0  0  0  0  0  0  0  0  0  0
    3.2169   -5.7878    0.0000 F   0  0  0  0  0  0  0  0  0  0  0  0
    4.5000   -7.7942    0.0000 F   0  0  0  0  0  0  0  0  0  0  0  0
    2.4510   -7.2452    0.0000 C   0  0  0  0  0  0  0  0  0  0  0  0
    3.2010   -8.5442    0.0000 F   0  0  0  0  0  0  0  0  0  0  0  0
    1.7010   -5.9462    0.0000 F   0  0  0  0  0  0  0  0  0  0  0  0
    1.1519   -7.9952    0.0000 C   0  0  0  0  0  0  0  0  0  0  0  0
    1.9019   -9.2942    0.0000 F   0  0  0  0  0  0  0  0  0  0  0  0
    0.4019   -6.6962    0.0000 F   0  0  0  0  0  0  0  0  0  0  0  0
   -0.1471   -8.7452    0.0000 C   0  0  0  0  0  0  0  0  0  0  0  0
   -1.4462   -9.4952    0.0000 F   0  0  0  0  0  0  0  0  0  0  0  0
   -0.8971   -7.4462    0.0000 F   0  0  0  0  0  0  0  0  0  0  0  0
    0.6029  -10.0442    0.0000 F   0  0  0  0  0  0  0  0  0  0  0  0
    0.5490    2.0490    0.0000 C   0  0  0  0  0  0  0  0  0  0  0  0
    1.2990    3.3481    0.0000 C   0  0  0  0  0  0  0  0  0  0  0  0
    2.7990    3.3481    0.0000 O   0  0  0  0  0  0  0  0  0  0  0  0
    0.5490    4.6471    0.0000 C   0  0  0  0  0  0  0  0  0  0  0  0
    1.2990    5.9462    0.0000 O   0  0  0  0  0  0  0  0  0  0  0  0
  1  2  1  0
  2  3  1  0
  2  4  1  0
  4  5  1  0
  5  6  1  0
  6  7  1  0
  7  8  1  0
  6  9  1  0
  9 10  1  0
 10 11  2  0
 10 12  2  0
 10 13  1  0
 13 14  1  0
 13 15  1  0
 13 16  1  0
 16 17  1  0
 16 18  1  0
 16 19  1  0
 19 20  1  0
 19 21  1  0
 19 22  1  0
 22 23  1  0
 22 24  1  0
 22 25  1  0
 25 26  1  0
 25 27  1  0
 25 28  1  0
  2 29  1  0
 29 30  1  0
 30 31  1  0
 30 32  1  0
 32 33  1  0
M  CHG  1   2   1
M  END
$$$$

     RDKit          2D

 29 27  0  0  0  0  0  0  0  0999 V2000
    0.0000    7.5490    0.0000 Cl  0  0  0  0  0  0  0  0  0  0  0  0
   -1.2990    0.7500    0.0000 N   0  0  0  0  0  0  0  0  0  0  0  0
    0.0000    0.0000    0.0000 C   0  0  0  0  0  0  0  0  0  0  0  0
    1.2990    0.7500    0.0000 C   0  0  0  0  0  0  0  0  0  0  0  0
    2.5981   -0.0000    0.0000 C   0  0  0  0  0  0  0  0  0  0  0  0
    3.8971    0.7500    0.0000 C   0  0  0  0  0  0  0  0  0  0  0  0
    5.1962   -0.0000    0.0000 C   0  0  0  0  0  0  0  0  0  0  0  0
    6.4952    0.7500    0.0000 C   0  0  0  0  0  0  0  0  0  0  0  0
    7.2452   -0.5490    0.0000 F   0  0  0  0  0  0  0  0  0  0  0  0
    5.7452    2.0490    0.0000 F   0  0  0  0  0  0  0  0  0  0  0  0
    7.7942    1.5000    0.0000 C   0  0  0  0  0  0  0  0  0  0  0  0
    7.0442    2.7990    0.0000 F   0  0  0  0  0  0  0  0  0  0  0  0
    8.5442    0.2010    0.0000 F   0  0  0  0  0  0  0  0  0  0  0  0
    9.0933    2.2500    0.0000 C   0  0  0  0  0  0  0  0  0  0  0  0
    9.8433    0.9510    0.0000 F   0  0  0  0  0  0  0  0  0  0  0  0
    8.3433    3.5490    0.0000 F   0  0  0  0  0  0  0  0  0  0  0  0
   10.3923    3.0000    0.0000 C   0  0  0  0  0  0  0  0  0  0  0  0
    9.6423    4.2990    0.0000 F   0  0  0  0  0  0  0  0  0  0  0  0
   11.1423    1.7010    0.0000 F   0  0  0  0  0  0  0  0  0  0  0  0
   11.6913    3.7500    0.0000 C   0  0  0  0  0  0  0  0  0  0  0  0
   12.4413    2.4510    0.0000 F   0  0  0  0  0  0  0  0  0  0  0  0
   10.9413    5.0490    0.0000 F   0  0  0  0  0  0  0  0  0  0  0  0
   12.9904    4.5000    0.0000 C   0  0  0  0  0  0  0  0  0  0  0  0
   12.2404    5.7990    0.0000 F   0  0  0  0  0  0  0  0  0  0  0  0
   13.7404    3.2010    0.0000 F   0  0  0  0  0  0  0  0  0  0  0  0
   14.2894    5.2500    0.0000 C   0  0  0  0  0  0  0  0  0  0  0  0
   15.5885    6.0000    0.0000 F   0  0  0  0  0  0  0  0  0  0  0  0
   15.0394    3.9510    0.0000 F   0  0  0  0  0  0  0  0  0  0  0  0
   13.5394    6.5490    0.0000 F   0  0  0  0  0  0  0  0  0  0  0  0
  2  3  1  0
  3  4  1  0
  4  5  1  0
  5  6  1  0
  6  7  1  0
  7  8  1  0
  8  9  1  0
  8 10  1  0
  8 11  1  0
 11 12  1  0
 11 13  1  0
 11 14  1  0
 14 15  1  0
 14 16  1  0
 14 17  1  0
 17 18  1  0
 17 19  1  0
 17 20  1  0
 20 21  1  0
 20 22  1  0
 20 23  1  0
 23 24  1  0
 23 25  1  0
 23 26  1  0
 26 27  1  0
 26 28  1  0
 26 29  1  0
M  END
$$$$

     RDKit          2D

 27 26  0  0  0  0  0  0  0  0999 V2000
    0.0000    0.0000    0.0000 C   0  0  0  0  0  0  0  0  0  0  0  0
    1.2990    0.7500    0.0000 N   0  0  0  0  0  0  0  0  0  0  0  0
    2.5981    1.5000    0.0000 C   0  0  0  0  0  0  0  0  0  0  0  0
    2.0490   -0.5490    0.0000 C   0  0  0  0  0  0  0  0  0  0  0  0
    3.5490   -0.5490    0.0000 C   0  0  0  0  0  0  0  0  0  0  0  0
    4.2990   -1.8481    0.0000 O   0  0  0  0  0  0  0  0  0  0  0  0
    0.5490    2.0490    0.0000 C   0  0  0  0  0  0  0  0  0  0  0  0
    1.2990    3.3481    0.0000 C   0  0  0  0  0  0  0  0  0  0  0  0
    2.7990    3.3481    0.0000 O   0  0  0  0  0  0  0  0  0  0  0  0
    0.5490    4.6471    0.0000 C   0  0  0  0  0  0  0  0  0  0  0  0
    1.2990    5.9462    0.0000 N   0  0  0  0  0  0  0  0  0  0  0  0
    0.5490    7.2452    0.0000 S   0  0  0  0  0  0  0  0  0  0  0  0
   -0.7500    6.4952    0.0000 O   0  0  0  0  0  0  0  0  0  0  0  0
    1.2828    7.5566    0.0000 O   0  0  0  0  0  0  0  0  0  0  0  0
   -0.2010    8.5442    0.0000 C   0  0  0  0  0  0  0  0  0  0  0  0
   -1.5000    7.7942    0.0000 F   0  0  0  0  0  0  0  0  0  0  0  0
   -0.9510    9.8433    0.0000 F   0  0  0  0  0  0  0  0  0  0  0  0
    1.0981    9.2942    0.0000 C   0  0  0  0  0  0  0  0  0  0  0  0
    0.3481   10.5933    0.0000 F   0  0  0  0  0  0  0  0  0  0  0  0
    1.6311    8.5869    0.0000 F   0  0  0  0  0  0  0  0  0  0  0  0
    2.3971   10.0442    0.0000 C   0  0  0  0  0  0  0  0  0  0  0  0
    3.1471    8.7452    0.0000 F   0  0  0  0  0  0  0  0  0  0  0  0
    1.6471   11.3433    0.0000 F   0  0  0  0  0  0  0  0  0  0  0  0
    3.6962   10.7942    0.0000 C   0  0  0  0  0  0  0  0  0  0  0  0
    4.9952   11.5442    0.0000 F   0  0  0  0  0  0  0  0  0  0  0  0
    2.9462   12.0933    0.0000 F   0  0  0  0  0  0  0  0  0  0  0  0
    4.4462    9.4952    0.0000 F   0  0  0  0  0  0  0  0  0  0  0  0
  1  2  1  0
  2  3  1  0
  2  4  1  0
  4  5  1  0
  5  6  1  0
  2  7  1  0
  7  8  1  0
  8  9  1  0
  8 10  1  0
 10 11  1  0
 11 12  1  0
 12 13  2  0
 12 14  2  0
 12 15  1  0
 15 16  1  0
 15 17  1  0
 15 18  1  0
 18 19  1  0
 18 20  1  0
 18 21  1  0
 21 22  1  0
 21 23  1  0
 21 24  1  0
 24 25  1  0
 24 26  1  0
 24 27  1  0
M  CHG  1   2   1
M  END
$$$$

     RDKit          2D

 34 33  0  0  0  0  0  0  0  0999 V2000
   -5.4510    3.1471    0.0000 C   0  0  0  0  0  0  0  0  0  0  0  0
   -5.4510    4.6471    0.0000 N   0  0  0  0  0  0  0  0  0  0  0  0
   -5.4510    6.1471    0.0000 C   0  0  0  0  0  0  0  0  0  0  0  0
   -6.9510    4.6471    0.0000 C   0  0  0  0  0  0  0  0  0  0  0  0
   -3.9510    4.6471    0.0000 C   0  0  0  0  0  0  0  0  0  0  0  0
   -3.2010    5.9462    0.0000 C   0  0  0  0  0  0  0  0  0  0  0  0
   -1.7010    5.9462    0.0000 C   0  0  0  0  0  0  0  0  0  0  0  0
   -0.9510    7.2452    0.0000 N   0  0  0  0  0  0  0  0  0  0  0  0
    0.5490    7.2452    0.0000 C   0  0  0  0  0  0  0  0  0  0  0  0
    1.2990    8.5442    0.0000 S   0  0  0  0  0  0  0  0  0  0  0  0
    1.9357    8.0645    0.0000 O   0  0  0  0  0  0  0  0  0  0  0  0
    0.0000    9.2942    0.0000 O   0  0  0  0  0  0  0  0  0  0  0  0
    2.0490    9.8433    0.0000 C   0  0  0  0  0  0  0  0  0  0  0  0
    0.7500   10.5933    0.0000 F   0  0  0  0  0  0  0  0  0  0  0  0
    2.7990   11.1423    0.0000 F   0  0  0  0  0  0  0  0  0  0  0  0
    3.3481    9.0933    0.0000 C   0  0  0  0  0  0  0  0  0  0  0  0
    3.0020    8.2779    0.0000 F   0  0  0  0  0  0  0  0  0  0  0  0
    4.0981   10.3923    0.0000 F   0  0  0  0  0  0  0  0  0  0  0  0
    4.6471    8.3433    0.0000 C   0  0  0  0  0  0  0  0  0  0  0  0
    5.3971    9.6423    0.0000 F   0  0  0  0  0  0  0  0  0  0  0  0
    3.8971    7.0442    0.0000 F   0  0  0  0  0  0  0  0  0  0  0  0
    5.9462    7.5933    0.0000 C   0  0  0  0  0  0  0  0  0  0  0  0
    5.1962    6.2942    0.0000 F   0  0  0  0  0  0  0  0  0  0  0  0
    6.6962    8.8923    0.0000 F   0  0  0  0  0  0  0  0  0  0  0  0
    7.2452    6.8433    0.0000 C   0  0  0  0  0  0  0  0  0  0  0  0
    6.4952    5.5442    0.0000 F   0  0  0  0  0  0  0  0  0  0  0  0
    7.9952    8.1423    0.0000 F   0  0  0  0  0  0  0  0  0  0  0  0
    8.5442    6.0933    0.0000 C   0  0  0  0  0  0  0  0  0  0  0  0
    9.2942    7.3923    0.0000 F   0  0  0  0  0  0  0  0  0  0  0  0
    7.7942    4.7942    0.0000 F   0  0  0  0  0  0  0  0  0  0  0  0
    9.8433    5.3433    0.0000 C   0  0  0  0  0  0  0  0  0  0  0  0
   11.1423    4.5933    0.0000 F   0  0  0  0  0  0  0  0  0  0  0  0
    9.0933    4.0442    0.0000 F   0  0  0  0  0  0  0  0  0  0  0  0
   10.5933    6.6423    0.0000 F   0  0  0  0  0  0  0  0  0  0  0  0
  1  2  1  0
  2  3  1  0
  2  4  1  0
  2  5  1  0
  5  6  1  0
  6  7  1  0
  7  8  1  0
  8  9  1  0
  9 10  1  0
 10 11  2  0
 10 12  2  0
 10 13  1  0
 13 14  1  0
 13 15  1  0
 13 16  1  0
 16 17  1  0
 16 18  1  0
 16 19  1  0
 19 20  1  0
 19 21  1  0
 19 22  1  0
 22 23  1  0
 22 24  1  0
 22 25  1  0
 25 26  1  0
 25 27  1  0
 25 28  1  0
 28 29  1  0
 28 30  1  0
 28 31  1  0
 31 32  1  0
 31 33  1  0
 31 34  1  0
M  CHG  1   2   1
M  END
$$$$

     RDKit          2D

 42 41  0  0  0  0  0  0  0  0999 V2000
  -15.0394    6.9510    0.0000 O   0  0  0  0  0  0  0  0  0  0  0  0
  -13.7404    6.2010    0.0000 S   0  0  0  0  0  0  0  0  0  0  0  0
  -13.1038    5.7212    0.0000 O   0  0  0  0  0  0  0  0  0  0  0  0
  -14.4904    4.9019    0.0000 O   0  0  0  0  0  0  0  0  0  0  0  0
  -12.9904    7.5000    0.0000 C   0  0  0  0  0  0  0  0  0  0  0  0
  -14.2894    8.2500    0.0000 F   0  0  0  0  0  0  0  0  0  0  0  0
  -12.2404    8.7990    0.0000 F   0  0  0  0  0  0  0  0  0  0  0  0
  -11.6913    6.7500    0.0000 C   0  0  0  0  0  0  0  0  0  0  0  0
  -12.0374    5.9347    0.0000 F   0  0  0  0  0  0  0  0  0  0  0  0
  -10.9413    8.0490    0.0000 F   0  0  0  0  0  0  0  0  0  0  0  0
  -10.3923    6.0000    0.0000 C   0  0  0  0  0  0  0  0  0  0  0  0
   -9.6423    7.2990    0.0000 F   0  0  0  0  0  0  0  0  0  0  0  0
  -11.1423    4.7010    0.0000 F   0  0  0  0  0  0  0  0  0  0  0  0
   -9.0933    5.2500    0.0000 C   0  0  0  0  0  0  0  0  0  0  0  0
   -9.8433    3.9510    0.0000 F   0  0  0  0  0  0  0  0  0  0  0  0
   -8.3433    6.5490    0.0000 F   0  0  0  0  0  0  0  0  0  0  0  0
   -7.7942    4.5000    0.0000 C   0  0  0  0  0  0  0  0  0  0  0  0
   -7.0442    5.7990    0.0000 F   0  0  0  0  0  0  0  0  0  0  0  0
   -8.5442    3.2010    0.0000 F   0  0  0  0  0  0  0  0  0  0  0  0
   -6.4952    3.7500    0.0000 C   0  0  0  0  0  0  0  0  0  0  0  0
   -7.2452    2.4510    0.0000 F   0  0  0  0  0  0  0  0  0  0  0  0
   -5.7452    5.0490    0.0000 F   0  0  0  0  0  0  0  0  0  0  0  0
   -5.1962    3.0000    0.0000 C   0  0  0  0  0  0  0  0  0  0  0  0
   -4.4462    4.2990    0.0000 F   0  0  0  0  0  0  0  0  0  0  0  0
   -5.9462    1.7010    0.0000 F   0  0  0  0  0  0  0  0  0  0  0  0
   -3.8971    2.2500    0.0000 C   0  0  0  0  0  0  0  0  0  0  0  0
   -4.6471    0.9510    0.0000 F   0  0  0  0  0  0  0  0  0  0  0  0
   -3.1471    3.5490    0.0000 F   0  0  0  0  0  0  0  0  0  0  0  0
   -2.5981    1.5000    0.0000 C   0  0  0  0  0  0  0  0  0  0  0  0
   -1.8481    2.7990    0.0000 F   0  0  0  0  0  0  0  0  0  0  0  0
   -3.3481    0.2010    0.0000 F   0  0  0  0  0  0  0  0  0  0  0  0
   -1.2990    0.7500    0.0000 C   0  0  0  0  0  0  0  0  0  0  0  0
   -2.0490   -0.5490    0.0000 F   0  0  0  0  0  0  0  0  0  0  0  0
   -0.5490    2.0490    0.0000 F   0  0  0  0  0  0  0  0  0  0  0  0
    0.0000    0.0000    0.0000 C   0  0  0  0  0  0  0  0  0  0  0  0
   -0.0000   -1.5000    0.0000 F   0  0  0  0  0  0  0  0  0  0  0  0
    1.2990    0.7500    0.0000 C   0  0  0  0  0  0  0  0  0  0  0  0
    1.2990    2.2500    0.0000 F   0  0  0  0  0  0  0  0  0  0  0  0
    2.5981   -0.0000    0.0000 C   0  0  0  0  0  0  0  0  0  0  0  0
    3.8971   -0.7500    0.0000 F   0  0  0  0  0  0  0  0  0  0  0  0
    3.3481    1.2990    0.0000 F   0  0  0  0  0  0  0  0  0  0  0  0
    1.8481   -1.2990    0.0000 F   0  0  0  0  0  0  0  0  0  0  0  0
  1  2  2  0
  2  3  2  0
  2  4  1  0
  2  5  1  0
  5  6  1  0
  5  7  1  0
  5  8  1  0
  8  9  1  0
  8 10  1  0
  8 11  1  0
 11 12  1  0
 11 13  1  0
 11 14  1  0
 14 15  1  0
 14 16  1  0
 14 17  1  0
 17 18  1  0
 17 19  1  0
 17 20  1  0
 20 21  1  0
 20 22  1  0
 20 23  1  0
 23 24  1  0
 23 25  1  0
 23 26  1  0
 26 27  1  0
 26 28  1  0
 26 29  1  0
 29 30  1  0
 29 31  1  0
 29 32  1  0
 32 33  1  0
 32 34  1  0
 32 35  1  0
 35 36  1  0
 35 37  2  3
 37 38  1  0
 37 39  1  0
 39 40  1  0
 39 41  1  0
 39 42  1  0
M  END
$$$$

     RDKit          2D

 38 37  0  0  0  0  0  0  0  0999 V2000
    1.2990    2.2500    0.0000 O   0  0  0  0  0  0  0  0  0  0  0  0
    1.2990    0.7500    0.0000 C   0  0  0  0  0  0  0  0  0  0  0  0
    2.5981   -0.0000    0.0000 O   0  0  0  0  0  0  0  0  0  0  0  0
    0.0000    0.0000    0.0000 C   0  0  0  0  0  0  0  0  0  0  0  0
   -1.2990    0.7500    0.0000 C   0  0  0  0  0  0  0  0  0  0  0  0
   -2.0490   -0.5490    0.0000 F   0  0  0  0  0  0  0  0  0  0  0  0
   -0.5490    2.0490    0.0000 F   0  0  0  0  0  0  0  0  0  0  0  0
   -2.5981    1.5000    0.0000 C   0  0  0  0  0  0  0  0  0  0  0  0
   -1.8481    2.7990    0.0000 F   0  0  0  0  0  0  0  0  0  0  0  0
   -3.3481    0.2010    0.0000 F   0  0  0  0  0  0  0  0  0  0  0  0
   -3.8971    2.2500    0.0000 C   0  0  0  0  0  0  0  0  0  0  0  0
   -4.6471    0.9510    0.0000 F   0  0  0  0  0  0  0  0  0  0  0  0
   -3.1471    3.5490    0.0000 F   0  0  0  0  0  0  0  0  0  0  0  0
   -5.1962    3.0000    0.0000 C   0  0  0  0  0  0  0  0  0  0  0  0
   -4.4462    4.2990    0.0000 F   0  0  0  0  0  0  0  0  0  0  0  0
   -5.9462    1.7010    0.0000 F   0  0  0  0  0  0  0  0  0  0  0  0
   -6.4952    3.7500    0.0000 C   0  0  0  0  0  0  0  0  0  0  0  0
   -7.2452    2.4510    0.0000 F   0  0  0  0  0  0  0  0  0  0  0  0
   -5.7452    5.0490    0.0000 F   0  0  0  0  0  0  0  0  0  0  0  0
   -7.7942    4.5000    0.0000 C   0  0  0  0  0  0  0  0  0  0  0  0
   -7.0442    5.7990    0.0000 F   0  0  0  0  0  0  0  0  0  0  0  0
   -8.5442    3.2010    0.0000 F   0  0  0  0  0  0  0  0  0  0  0  0
   -9.0933    5.2500    0.0000 C   0  0  0  0  0  0  0  0  0  0  0  0
   -9.8433    3.9510    0.0000 F   0  0  0  0  0  0  0  0  0  0  0  0
   -8.3433    6.5490    0.0000 F   0  0  0  0  0  0  0  0  0  0  0  0
  -10.3923    6.0000    0.0000 C   0  0  0  0  0  0  0  0  0  0  0  0
   -9.6423    7.2990    0.0000 F   0  0  0  0  0  0  0  0  0  0  0  0
  -11.1423    4.7010    0.0000 F   0  0  0  0  0  0  0  0  0  0  0  0
  -11.6913    6.7500    0.0000 C   0  0  0  0  0  0  0  0  0  0  0  0
  -12.4413    5.4510    0.0000 F   0  0  0  0  0  0  0  0  0  0  0  0
  -10.9413    8.0490    0.0000 F   0  0  0  0  0  0  0  0  0  0  0  0
  -12.9904    7.5000    0.0000 C   0  0  0  0  0  0  0  0  0  0  0  0
  -12.2404    8.7990    0.0000 F   0  0  0  0  0  0  0  0  0  0  0  0
  -13.7404    6.2010    0.0000 F   0  0  0  0  0  0  0  0  0  0  0  0
  -14.2894    8.2500    0.0000 C   0  0  0  0  0  0  0  0  0  0  0  0
  -15.5885    9.0000    0.0000 F   0  0  0  0  0  0  0  0  0  0  0  0
  -15.0394    6.9510    0.0000 F   0  0  0  0  0  0  0  0  0  0  0  0
  -13.5394    9.5490    0.0000 F   0  0  0  0  0  0  0  0  0  0  0  0
  1  2  2  0
  2  3  1  0
  2  4  1  0
  4  5  1  0
  5  6  1  0
  5  7  1  0
  5  8  1  0
  8  9  1  0
  8 10  1  0
  8 11  1  0
 11 12  1  0
 11 13  1  0
 11 14  1  0
 14 15  1  0
 14 16  1  0
 14 17  1  0
 17 18  1  0
 17 19  1  0
 17 20  1  0
 20 21  1  0
 20 22  1  0
 20 23  1  0
 23 24  1  0
 23 25  1  0
 23 26  1  0
 26 27  1  0
 26 28  1  0
 26 29  1  0
 29 30  1  0
 29 31  1  0
 29 32  1  0
 32 33  1  0
 32 34  1  0
 32 35  1  0
 35 36  1  0
 35 37  1  0
 35 38  1  0
M  END
$$$$

     RDKit          2D

 34 33  0  0  0  0  0  0  0  0999 V2000
    0.0000    0.0000    0.0000 C   0  0  0  0  0  0  0  0  0  0  0  0
    1.2990    0.7500    0.0000 N   0  0  0  0  0  0  0  0  0  0  0  0
    2.6798    1.3361    0.0000 C   0  0  0  0  0  0  0  0  0  0  0  0
    0.5490    2.0490    0.0000 C   0  0  0  0  0  0  0  0  0  0  0  0
    1.2990    3.3481    0.0000 C   0  0  0  0  0  0  0  0  0  0  0  0
    0.5490    4.6471    0.0000 O   0  0  0  0  0  0  0  0  0  0  0  0
    2.0490   -0.5490    0.0000 C   0  0  0  0  0  0  0  0  0  0  0  0
    3.5490   -0.5490    0.0000 C   0  0  0  0  0  0  0  0  0  0  0  0
    4.2990   -1.8481    0.0000 C   0  0  0  0  0  0  0  0  0  0  0  0
    5.7990   -1.8481    0.0000 N   0  0  0  0  0  0  0  0  0  0  0  0
    6.5490   -3.1471    0.0000 C   0  0  0  0  0  0  0  0  0  0  0  0
    8.0490   -3.1471    0.0000 C   0  0  0  0  0  0  0  0  0  0  0  0
    8.7990   -1.8481    0.0000 O   0  0  0  0  0  0  0  0  0  0  0  0
    8.7990   -4.4462    0.0000 C   0  0  0  0  0  0  0  0  0  0  0  0
   10.2990   -4.4462    0.0000 S   0  0  0  0  0  0  0  0  0  0  0  0
   10.2990   -5.9462    0.0000 O   0  0  0  0  0  0  0  0  0  0  0  0
   10.2990   -2.9462    0.0000 O   0  0  0  0  0  0  0  0  0  0  0  0
   11.7990   -4.4462    0.0000 O   0  0  0  0  0  0  0  0  0  0  0  0
    6.5490   -0.5490    0.0000 S   0  0  0  0  0  0  0  0  0  0  0  0
    5.8152   -0.2376    0.0000 O   0  0  0  0  0  0  0  0  0  0  0  0
    7.8481   -1.2990    0.0000 O   0  0  0  0  0  0  0  0  0  0  0  0
    7.2990    0.7500    0.0000 C   0  0  0  0  0  0  0  0  0  0  0  0
    8.5981   -0.0000    0.0000 F   0  0  0  0  0  0  0  0  0  0  0  0
    8.0490    2.0490    0.0000 F   0  0  0  0  0  0  0  0  0  0  0  0
    6.0000    1.5000    0.0000 C   0  0  0  0  0  0  0  0  0  0  0  0
    6.7500    2.7990    0.0000 F   0  0  0  0  0  0  0  0  0  0  0  0
    5.4669    0.7926    0.0000 F   0  0  0  0  0  0  0  0  0  0  0  0
    4.7010    2.2500    0.0000 C   0  0  0  0  0  0  0  0  0  0  0  0
    3.9510    0.9510    0.0000 F   0  0  0  0  0  0  0  0  0  0  0  0
    5.4510    3.5490    0.0000 F   0  0  0  0  0  0  0  0  0  0  0  0
    3.4019    3.0000    0.0000 C   0  0  0  0  0  0  0  0  0  0  0  0
    2.1029    3.7500    0.0000 F   0  0  0  0  0  0  0  0  0  0  0  0
    2.8159    1.6192    0.0000 F   0  0  0  0  0  0  0  0  0  0  0  0
    4.1519    4.2990    0.0000 F   0  0  0  0  0  0  0  0  0  0  0  0
  1  2  1  0
  2  3  1  0
  2  4  1  0
  4  5  1  0
  5  6  1  0
  2  7  1  0
  7  8  1  0
  8  9  1  0
  9 10  1  0
 10 11  1  0
 11 12  1  0
 12 13  1  0
 12 14  1  0
 14 15  1  0
 15 16  2  0
 15 17  2  0
 15 18  1  0
 10 19  1  0
 19 20  2  0
 19 21  2  0
 19 22  1  0
 22 23  1  0
 22 24  1  0
 22 25  1  0
 25 26  1  0
 25 27  1  0
 25 28  1  0
 28 29  1  0
 28 30  1  0
 28 31  1  0
 31 32  1  0
 31 33  1  0
 31 34  1  0
M  CHG  1   2   1
M  END
$$$$

     RDKit          2D

 25 24  0  0  0  0  0  0  0  0999 V2000
    0.0000    0.0000    0.0000 C   0  0  0  0  0  0  0  0  0  0  0  0
    1.2990    0.7500    0.0000 C   0  0  0  0  0  0  0  0  0  0  0  0
    2.5981   -0.0000    0.0000 O   0  0  0  0  0  0  0  0  0  0  0  0
    3.8971    0.7500    0.0000 C   0  0  0  0  0  0  0  0  0  0  0  0
    3.1471    2.0490    0.0000 F   0  0  0  0  0  0  0  0  0  0  0  0
    4.6471   -0.5490    0.0000 F   0  0  0  0  0  0  0  0  0  0  0  0
    5.1962    1.5000    0.0000 C   0  0  0  0  0  0  0  0  0  0  0  0
    5.9462    0.2010    0.0000 F   0  0  0  0  0  0  0  0  0  0  0  0
    4.4462    2.7990    0.0000 F   0  0  0  0  0  0  0  0  0  0  0  0
    6.4952    2.2500    0.0000 C   0  0  0  0  0  0  0  0  0  0  0  0
    5.7452    3.5490    0.0000 F   0  0  0  0  0  0  0  0  0  0  0  0
    7.2452    0.9510    0.0000 F   0  0  0  0  0  0  0  0  0  0  0  0
    7.7942    3.0000    0.0000 C   0  0  0  0  0  0  0  0  0  0  0  0
    7.0442    4.2990    0.0000 F   0  0  0  0  0  0  0  0  0  0  0  0
    8.5442    1.7010    0.0000 F   0  0  0  0  0  0  0  0  0  0  0  0
    9.0933    3.7500    0.0000 C   0  0  0  0  0  0  0  0  0  0  0  0
    9.8433    2.4510    0.0000 F   0  0  0  0  0  0  0  0  0  0  0  0
    8.3433    5.0490    0.0000 F   0  0  0  0  0  0  0  0  0  0  0  0
   10.3923    4.5000    0.0000 C   0  0  0  0  0  0  0  0  0  0  0  0
    9.6423    5.7990    0.0000 F   0  0  0  0  0  0  0  0  0  0  0  0
   11.1423    3.2010    0.0000 F   0  0  0  0  0  0  0  0  0  0  0  0
   11.6913    5.2500    0.0000 C   0  0  0  0  0  0  0  0  0  0  0  0
   12.9904    6.0000    0.0000 F   0  0  0  0  0  0  0  0  0  0  0  0
   12.4413    3.9510    0.0000 F   0  0  0  0  0  0  0  0  0  0  0  0
   10.9413    6.5490    0.0000 F   0  0  0  0  0  0  0  0  0  0  0  0
  1  2  1  0
  2  3  1  0
  3  4  1  0
  4  5  1  0
  4  6  1  0
  4  7  1  0
  7  8  1  0
  7  9  1  0
  7 10  1  0
 10 11  1  0
 10 12  1  0
 10 13  1  0
 13 14  1  0
 13 15  1  0
 13 16  1  0
 16 17  1  0
 16 18  1  0
 16 19  1  0
 19 20  1  0
 19 21  1  0
 19 22  1  0
 22 23  1  0
 22 24  1  0
 22 25  1  0
M  END
$$$$

     RDKit          2D

 14 13  0  0  0  0  0  0  0  0999 V2000
    0.0000    0.0000    0.0000 C   0  0  0  0  0  0  0  0  0  0  0  0
    1.2990    0.7500    0.0000 O   0  0  0  0  0  0  0  0  0  0  0  0
    2.5981   -0.0000    0.0000 Si  0  0  0  0  0  4  0  0  0  0  0  0
    3.3481    1.2990    0.0000 C   0  0  0  0  0  0  0  0  0  0  0  0
    1.8481   -1.2990    0.0000 C   0  0  0  0  0  0  0  0  0  0  0  0
    3.8971   -0.7500    0.0000 C   0  0  0  0  0  0  0  0  0  0  0  0
    3.8971   -2.2500    0.0000 C   0  0  0  0  0  0  0  0  0  0  0  0
    5.1962   -3.0000    0.0000 C   0  0  0  0  0  0  0  0  0  0  0  0
    4.4462   -4.2990    0.0000 F   0  0  0  0  0  0  0  0  0  0  0  0
    5.9462   -1.7010    0.0000 F   0  0  0  0  0  0  0  0  0  0  0  0
    6.4952   -3.7500    0.0000 C   0  0  0  0  0  0  0  0  0  0  0  0
    7.7942   -4.5000    0.0000 F   0  0  0  0  0  0  0  0  0  0  0  0
    7.2452   -2.4510    0.0000 F   0  0  0  0  0  0  0  0  0  0  0  0
    5.7452   -5.0490    0.0000 F   0  0  0  0  0  0  0  0  0  0  0  0
  1  2  1  0
  2  3  1  0
  3  4  1  0
  3  5  1  0
  3  6  1  0
  6  7  1  0
  7  8  1  0
  8  9  1  0
  8 10  1  0
  8 11  1  0
 11 12  1  0
 11 13  1  0
 11 14  1  0
M  END
$$$$

     RDKit          2D

 51 50  0  0  0  0  0  0  0  0999 V2000
   -2.0490   -2.4510    0.0000 O   0  0  0  0  0  0  0  0  0  0  0  0
   -1.2990   -3.7500    0.0000 S   0  0  0  0  0  0  0  0  0  0  0  0
   -2.6798   -4.3361    0.0000 O   0  0  0  0  0  0  0  0  0  0  0  0
   -0.0000   -3.0000    0.0000 O   0  0  0  0  0  0  0  0  0  0  0  0
   -0.0000   -1.5000    0.0000 S   0  0  0  0  0  0  0  0  0  0  0  0
   -1.5000   -1.5000    0.0000 O   0  0  0  0  0  0  0  0  0  0  0  0
    0.7912   -1.5972    0.0000 O   0  0  0  0  0  0  0  0  0  0  0  0
   -0.0000    0.0000    0.0000 C   0  0  0  0  0  0  0  0  0  0  0  0
   -1.5000    0.0000    0.0000 F   0  0  0  0  0  0  0  0  0  0  0  0
    0.0000    1.5000    0.0000 F   0  0  0  0  0  0  0  0  0  0  0  0
    1.5000    0.0000    0.0000 C   0  0  0  0  0  0  0  0  0  0  0  0
    1.5000    1.5000    0.0000 F   0  0  0  0  0  0  0  0  0  0  0  0
    1.6080   -0.8791    0.0000 F   0  0  0  0  0  0  0  0  0  0  0  0
    3.0000   -0.0000    0.0000 C   0  0  0  0  0  0  0  0  0  0  0  0
    3.0000   -1.5000    0.0000 F   0  0  0  0  0  0  0  0  0  0  0  0
    3.0000    1.5000    0.0000 F   0  0  0  0  0  0  0  0  0  0  0  0
    4.5000   -0.0000    0.0000 C   0  0  0  0  0  0  0  0  0  0  0  0
    4.5000    1.5000    0.0000 F   0  0  0  0  0  0  0  0  0  0  0  0
    4.5000   -1.5000    0.0000 F   0  0  0  0  0  0  0  0  0  0  0  0
    6.0000   -0.0000    0.0000 C   0  0  0  0  0  0  0  0  0  0  0  0
    6.0000    1.5000    0.0000 F   0  0  0  0  0  0  0  0  0  0  0  0
    6.0000   -1.5000    0.0000 F   0  0  0  0  0  0  0  0  0  0  0  0
    7.5000   -0.0000    0.0000 C   0  0  0  0  0  0  0  0  0  0  0  0
    7.5000   -1.5000    0.0000 F   0  0  0  0  0  0  0  0  0  0  0  0
    7.5000    1.5000    0.0000 F   0  0  0  0  0  0  0  0  0  0  0  0
    9.0000   -0.0000    0.0000 C   0  0  0  0  0  0  0  0  0  0  0  0
   10.5000   -0.0000    0.0000 F   0  0  0  0  0  0  0  0  0  0  0  0
    9.0000    1.5000    0.0000 F   0  0  0  0  0  0  0  0  0  0  0  0
    9.0000   -1.5000    0.0000 F   0  0  0  0  0  0  0  0  0  0  0  0
   -0.5490   -5.0490    0.0000 C   0  0  0  0  0  0  0  0  0  0  0  0
    0.7500   -4.2990    0.0000 F   0  0  0  0  0  0  0  0  0  0  0  0
    0.2010   -6.3481    0.0000 F   0  0  0  0  0  0  0  0  0  0  0  0
   -1.8481   -5.7990    0.0000 C   0  0  0  0  0  0  0  0  0  0  0  0
   -2.7508   -4.6011    0.0000 F   0  0  0  0  0  0  0  0  0  0  0  0
   -1.0981   -7.0981    0.0000 F   0  0  0  0  0  0  0  0  0  0  0  0
   -3.1471   -6.5490    0.0000 C   0  0  0  0  0  0  0  0  0  0  0  0
   -2.3971   -7.8481    0.0000 F   0  0  0  0  0  0  0  0  0  0  0  0
   -3.8971   -5.2500    0.0000 F   0  0  0  0  0  0  0  0  0  0  0  0
   -4.4462   -7.2990    0.0000 C   0  0  0  0  0  0  0  0  0  0  0  0
   -5.1962   -6.0000    0.0000 F   0  0  0  0  0  0  0  0  0  0  0  0
   -3.6962   -8.5981    0.0000 F   0  0  0  0  0  0  0  0  0  0  0  0
   -5.7452   -8.0490    0.0000 C   0  0  0  0  0  0  0  0  0  0  0  0
   -6.4952   -6.7500    0.0000 F   0  0  0  0  0  0  0  0  0  0  0  0
   -4.9952   -9.3481    0.0000 F   0  0  0  0  0  0  0  0  0  0  0  0
   -7.0442   -8.7990    0.0000 C   0  0  0  0  0  0  0  0  0  0  0  0
   -6.2942  -10.0981    0.0000 F   0  0  0  0  0  0  0  0  0  0  0  0
   -7.7942   -7.5000    0.0000 F   0  0  0  0  0  0  0  0  0  0  0  0
   -8.3433   -9.5490    0.0000 C   0  0  0  0  0  0  0  0  0  0  0  0
   -9.6423  -10.2990    0.0000 F   0  0  0  0  0  0  0  0  0  0  0  0
   -9.0933   -8.2500    0.0000 F   0  0  0  0  0  0  0  0  0  0  0  0
   -7.5933  -10.8481    0.0000 F   0  0  0  0  0  0  0  0  0  0  0  0
  1  2  2  0
  2  3  2  0
  2  4  1  0
  4  5  1  0
  5  6  2  0
  5  7  2  0
  5  8  1  0
  8  9  1  0
  8 10  1  0
  8 11  1  0
 11 12  1  0
 11 13  1  0
 11 14  1  0
 14 15  1  0
 14 16  1  0
 14 17  1  0
 17 18  1  0
 17 19  1  0
 17 20  1  0
 20 21  1  0
 20 22  1  0
 20 23  1  0
 23 24  1  0
 23 25  1  0
 23 26  1  0
 26 27  1  0
 26 28  1  0
 26 29  1  0
  2 30  1  0
 30 31  1  0
 30 32  1  0
 30 33  1  0
 33 34  1  0
 33 35  1  0
 33 36  1  0
 36 37  1  0
 36 38  1  0
 36 39  1  0
 39 40  1  0
 39 41  1  0
 39 42  1  0
 42 43  1  0
 42 44  1  0
 42 45  1  0
 45 46  1  0
 45 47  1  0
 45 48  1  0
 48 49  1  0
 48 50  1  0
 48 51  1  0
M  END
$$$$

     RDKit          2D

 34 33  0  0  0  0  0  0  0  0999 V2000
    5.2500   -3.8971    0.0000 O   0  0  0  0  0  0  0  0  0  0  0  0
    6.0000   -2.5981    0.0000 C   0  0  0  0  0  0  0  0  0  0  0  0
    5.2500   -1.2990    0.0000 N   0  0  0  0  0  0  0  0  0  0  0  0
    3.7500   -1.2990    0.0000 C   0  0  0  0  0  0  0  0  0  0  0  0
    3.0000    0.0000    0.0000 C   0  0  0  0  0  0  0  0  0  0  0  0
    1.5000    0.0000    0.0000 N   0  0  0  0  0  0  0  0  0  0  0  0
    0.7500   -1.2990    0.0000 C   0  0  0  0  0  0  0  0  0  0  0  0
   -0.7500   -1.2990    0.0000 C   0  0  0  0  0  0  0  0  0  0  0  0
   -1.5000    0.0000    0.0000 C   0  0  0  0  0  0  0  0  0  0  0  0
   -0.7500    1.2990    0.0000 C   0  0  0  0  0  0  0  0  0  0  0  0
    0.7500    1.2990    0.0000 C   0  0  0  0  0  0  0  0  0  0  0  0
    7.5000   -2.5981    0.0000 C   0  0  0  0  0  0  0  0  0  0  0  0
    7.5000   -4.0981    0.0000 F   0  0  0  0  0  0  0  0  0  0  0  0
    7.5000   -1.0981    0.0000 F   0  0  0  0  0  0  0  0  0  0  0  0
    9.0000   -2.5981    0.0000 C   0  0  0  0  0  0  0  0  0  0  0  0
    9.0000   -1.0981    0.0000 F   0  0  0  0  0  0  0  0  0  0  0  0
    9.0000   -4.0981    0.0000 F   0  0  0  0  0  0  0  0  0  0  0  0
   10.5000   -2.5981    0.0000 C   0  0  0  0  0  0  0  0  0  0  0  0
   10.5000   -4.0981    0.0000 F   0  0  0  0  0  0  0  0  0  0  0  0
   10.5000   -1.0981    0.0000 F   0  0  0  0  0  0  0  0  0  0  0  0
   12.0000   -2.5981    0.0000 C   0  0  0  0  0  0  0  0  0  0  0  0
   12.0000   -1.0981    0.0000 F   0  0  0  0  0  0  0  0  0  0  0  0
   12.0000   -4.0981    0.0000 F   0  0  0  0  0  0  0  0  0  0  0  0
   13.5000   -2.5981    0.0000 C   0  0  0  0  0  0  0  0  0  0  0  0
   13.5000   -4.0981    0.0000 F   0  0  0  0  0  0  0  0  0  0  0  0
   13.5000   -1.0981    0.0000 F   0  0  0  0  0  0  0  0  0  0  0  0
   15.0000   -2.5981    0.0000 C   0  0  0  0  0  0  0  0  0  0  0  0
   15.0000   -1.0981    0.0000 F   0  0  0  0  0  0  0  0  0  0  0  0
   15.0000   -4.0981    0.0000 F   0  0  0  0  0  0  0  0  0  0  0  0
   16.5000   -2.5981    0.0000 C   0  0  0  0  0  0  0  0  0  0  0  0
   18.0000   -2.5981    0.0000 F   0  0  0  0  0  0  0  0  0  0  0  0
   16.5000   -4.0981    0.0000 F   0  0  0  0  0  0  0  0  0  0  0  0
   16.5000   -1.0981    0.0000 F   0  0  0  0  0  0  0  0  0  0  0  0
    0.0000    2.2990    0.0000 Cl  0  0  0  0  0  0  0  0  0  0  0  0
  1  2  2  0
  2  3  1  0
  3  4  1  0
  4  5  1  0
  5  6  1  0
  6  7  2  0
  7  8  1  0
  8  9  2  0
  9 10  1  0
 10 11  2  0
  2 12  1  0
 12 13  1  0
 12 14  1  0
 12 15  1  0
 15 16  1  0
 15 17  1  0
 15 18  1  0
 18 19  1  0
 18 20  1  0
 18 21  1  0
 21 22  1  0
 21 23  1  0
 21 24  1  0
 24 25  1  0
 24 26  1  0
 24 27  1  0
 27 28  1  0
 27 29  1  0
 27 30  1  0
 30 31  1  0
 30 32  1  0
 30 33  1  0
 11  6  1  0
M  CHG  2   6   1  34  -1
M  END
$$$$

     RDKit          2D

 29 28  0  0  0  0  0  0  0  0999 V2000
   13.0981   -1.5000    0.0000 F   0  0  0  0  0  0  0  0  0  0  0  0
   11.7990   -0.7500    0.0000 C   0  0  0  0  0  0  0  0  0  0  0  0
   12.5490    0.5490    0.0000 F   0  0  0  0  0  0  0  0  0  0  0  0
   11.0490   -2.0490    0.0000 F   0  0  0  0  0  0  0  0  0  0  0  0
   10.5000   -0.0000    0.0000 C   0  0  0  0  0  0  0  0  0  0  0  0
   11.2500    1.2990    0.0000 F   0  0  0  0  0  0  0  0  0  0  0  0
    9.7500   -1.2990    0.0000 O   0  0  0  0  0  0  0  0  0  0  0  0
    8.2500   -1.2990    0.0000 C   0  0  0  0  0  0  0  0  0  0  0  0
    8.2500   -2.7990    0.0000 F   0  0  0  0  0  0  0  0  0  0  0  0
    8.1528   -0.5078    0.0000 F   0  0  0  0  0  0  0  0  0  0  0  0
    6.7500   -1.2990    0.0000 C   0  0  0  0  0  0  0  0  0  0  0  0
    6.7500    0.2010    0.0000 F   0  0  0  0  0  0  0  0  0  0  0  0
    6.7500   -2.7990    0.0000 F   0  0  0  0  0  0  0  0  0  0  0  0
    5.2500   -1.2990    0.0000 C   0  0  0  0  0  0  0  0  0  0  0  0
    5.2500   -2.7990    0.0000 F   0  0  0  0  0  0  0  0  0  0  0  0
    5.2500    0.2010    0.0000 F   0  0  0  0  0  0  0  0  0  0  0  0
    3.7500   -1.2990    0.0000 C   0  0  0  0  0  0  0  0  0  0  0  0
    3.0000    0.0000    0.0000 C   0  0  0  0  0  0  0  0  0  0  0  0
    1.5000    0.0000    0.0000 N   0  0  0  0  0  0  0  0  0  0  0  0
    0.7500   -1.2990    0.0000 C   0  0  0  0  0  0  0  0  0  0  0  0
   -0.7500   -1.2990    0.0000 C   0  0  0  0  0  0  0  0  0  0  0  0
   -1.5000    0.0000    0.0000 C   0  0  0  0  0  0  0  0  0  0  0  0
   -0.7500    1.2990    0.0000 C   0  0  0  0  0  0  0  0  0  0  0  0
    0.7500    1.2990    0.0000 C   0  0  0  0  0  0  0  0  0  0  0  0
    9.2010    0.7500    0.0000 C   0  0  0  0  0  0  0  0  0  0  0  0
    7.9019    1.5000    0.0000 F   0  0  0  0  0  0  0  0  0  0  0  0
    9.9510    2.0490    0.0000 F   0  0  0  0  0  0  0  0  0  0  0  0
    8.5814    0.2484    0.0000 F   0  0  0  0  0  0  0  0  0  0  0  0
    0.0000    3.0490    0.0000 Cl  0  0  0  0  0  0  0  0  0  0  0  0
  1  2  1  0
  2  3  1  0
  2  4  1  0
  2  5  1  0
  5  6  1  0
  5  7  1  0
  7  8  1  0
  8  9  1  0
  8 10  1  0
  8 11  1  0
 11 12  1  0
 11 13  1  0
 11 14  1  0
 14 15  1  0
 14 16  1  0
 14 17  1  0
 17 18  1  0
 18 19  1  0
 19 20  2  0
 20 21  1  0
 21 22  2  0
 22 23  1  0
 23 24  2  0
  5 25  1  0
 25 26  1  0
 25 27  1  0
 25 28  1  0
 24 19  1  0
M  CHG  2  19   1  29  -1
M  END
$$$$

     RDKit          2D

 26 25  0  0  0  0  0  0  0  0999 V2000
    0.0000    0.0000    0.0000 C   0  0  0  0  0  0  0  0  0  0  0  0
    1.2990    0.7500    0.0000 N   0  0  0  0  0  0  0  0  0  0  0  0
    2.5981   -0.0000    0.0000 C   0  0  0  0  0  0  0  0  0  0  0  0
    1.2990    2.2500    0.0000 C   0  0  0  0  0  0  0  0  0  0  0  0
    2.5981    3.0000    0.0000 C   0  0  0  0  0  0  0  0  0  0  0  0
    2.5981    4.5000    0.0000 C   0  0  0  0  0  0  0  0  0  0  0  0
    3.8971    5.2500    0.0000 N   0  0  0  0  0  0  0  0  0  0  0  0
    3.8971    6.7500    0.0000 C   0  0  0  0  0  0  0  0  0  0  0  0
    2.5981    7.5000    0.0000 O   0  0  0  0  0  0  0  0  0  0  0  0
    5.1962    7.5000    0.0000 C   0  0  0  0  0  0  0  0  0  0  0  0
    5.1962    9.0000    0.0000 S   0  0  0  0  0  0  0  0  0  0  0  0
    6.4952    9.7500    0.0000 C   0  0  0  0  0  0  0  0  0  0  0  0
    6.4952   11.2500    0.0000 C   0  0  0  0  0  0  0  0  0  0  0  0
    7.7942   12.0000    0.0000 C   0  0  0  0  0  0  0  0  0  0  0  0
    7.0442   13.2990    0.0000 F   0  0  0  0  0  0  0  0  0  0  0  0
    8.5442   10.7010    0.0000 F   0  0  0  0  0  0  0  0  0  0  0  0
    9.0933   12.7500    0.0000 C   0  0  0  0  0  0  0  0  0  0  0  0
    9.8433   11.4510    0.0000 F   0  0  0  0  0  0  0  0  0  0  0  0
    8.3433   14.0490    0.0000 F   0  0  0  0  0  0  0  0  0  0  0  0
   10.3923   13.5000    0.0000 C   0  0  0  0  0  0  0  0  0  0  0  0
    9.6423   14.7990    0.0000 F   0  0  0  0  0  0  0  0  0  0  0  0
   11.1423   12.2010    0.0000 F   0  0  0  0  0  0  0  0  0  0  0  0
   11.6913   14.2500    0.0000 C   0  0  0  0  0  0  0  0  0  0  0  0
   12.9904   15.0000    0.0000 F   0  0  0  0  0  0  0  0  0  0  0  0
   12.4413   12.9510    0.0000 F   0  0  0  0  0  0  0  0  0  0  0  0
   10.9413   15.5490    0.0000 F   0  0  0  0  0  0  0  0  0  0  0  0
  1  2  1  0
  2  3  1  0
  2  4  1  0
  4  5  1  0
  5  6  1  0
  6  7  1  0
  7  8  1  0
  8  9  2  0
  8 10  1  0
 10 11  1  0
 11 12  1  0
 12 13  1  0
 13 14  1  0
 14 15  1  0
 14 16  1  0
 14 17  1  0
 17 18  1  0
 17 19  1  0
 17 20  1  0
 20 21  1  0
 20 22  1  0
 20 23  1  0
 23 24  1  0
 23 25  1  0
 23 26  1  0
M  END
$$$$

     RDKit          2D

 50 49  0  0  0  0  0  0  0  0999 V2000
    0.0000    0.0000    0.0000 C   0  0  0  0  0  0  0  0  0  0  0  0
    1.2990    0.7500    0.0000 N   0  0  0  0  0  0  0  0  0  0  0  0
    2.5981   -0.0000    0.0000 C   0  0  0  0  0  0  0  0  0  0  0  0
    1.2990    2.2500    0.0000 C   0  0  0  0  0  0  0  0  0  0  0  0
    2.5981    3.0000    0.0000 C   0  0  0  0  0  0  0  0  0  0  0  0
    2.5981    4.5000    0.0000 C   0  0  0  0  0  0  0  0  0  0  0  0
    3.8971    5.2500    0.0000 N   0  0  0  0  0  0  0  0  0  0  0  0
    3.8971    6.7500    0.0000 C   0  0  0  0  0  0  0  0  0  0  0  0
    2.5981    7.5000    0.0000 O   0  0  0  0  0  0  0  0  0  0  0  0
    5.1962    7.5000    0.0000 C   0  0  0  0  0  0  0  0  0  0  0  0
    5.1962    9.0000    0.0000 S   0  0  0  0  0  0  0  0  0  0  0  0
    6.4952    9.7500    0.0000 C   0  0  0  0  0  0  0  0  0  0  0  0
    6.4952   11.2500    0.0000 C   0  0  0  0  0  0  0  0  0  0  0  0
    7.7942   12.0000    0.0000 C   0  0  0  0  0  0  0  0  0  0  0  0
    7.0442   13.2990    0.0000 F   0  0  0  0  0  0  0  0  0  0  0  0
    8.5442   10.7010    0.0000 F   0  0  0  0  0  0  0  0  0  0  0  0
    9.0933   12.7500    0.0000 C   0  0  0  0  0  0  0  0  0  0  0  0
    9.8433   11.4510    0.0000 F   0  0  0  0  0  0  0  0  0  0  0  0
    8.3433   14.0490    0.0000 F   0  0  0  0  0  0  0  0  0  0  0  0
   10.3923   13.5000    0.0000 C   0  0  0  0  0  0  0  0  0  0  0  0
    9.6423   14.7990    0.0000 F   0  0  0  0  0  0  0  0  0  0  0  0
   11.1423   12.2010    0.0000 F   0  0  0  0  0  0  0  0  0  0  0  0
   11.6913   14.2500    0.0000 C   0  0  0  0  0  0  0  0  0  0  0  0
   12.4413   12.9510    0.0000 F   0  0  0  0  0  0  0  0  0  0  0  0
   10.9413   15.5490    0.0000 F   0  0  0  0  0  0  0  0  0  0  0  0
   12.9904   15.0000    0.0000 C   0  0  0  0  0  0  0  0  0  0  0  0
   12.2404   16.2990    0.0000 F   0  0  0  0  0  0  0  0  0  0  0  0
   13.7404   13.7010    0.0000 F   0  0  0  0  0  0  0  0  0  0  0  0
   14.2894   15.7500    0.0000 C   0  0  0  0  0  0  0  0  0  0  0  0
   15.0394   14.4510    0.0000 F   0  0  0  0  0  0  0  0  0  0  0  0
   13.5394   17.0490    0.0000 F   0  0  0  0  0  0  0  0  0  0  0  0
   15.5885   16.5000    0.0000 C   0  0  0  0  0  0  0  0  0  0  0  0
   14.8385   17.7990    0.0000 F   0  0  0  0  0  0  0  0  0  0  0  0
   16.3385   15.2010    0.0000 F   0  0  0  0  0  0  0  0  0  0  0  0
   16.8875   17.2500    0.0000 C   0  0  0  0  0  0  0  0  0  0  0  0
   17.6375   15.9510    0.0000 F   0  0  0  0  0  0  0  0  0  0  0  0
   16.1375   18.5490    0.0000 F   0  0  0  0  0  0  0  0  0  0  0  0
   18.1865   18.0000    0.0000 C   0  0  0  0  0  0  0  0  0  0  0  0
   17.4365   19.2990    0.0000 F   0  0  0  0  0  0  0  0  0  0  0  0
   18.9365   16.7010    0.0000 F   0  0  0  0  0  0  0  0  0  0  0  0
   19.4856   18.7500    0.0000 C   0  0  0  0  0  0  0  0  0  0  0  0
   20.2356   17.4510    0.0000 F   0  0  0  0  0  0  0  0  0  0  0  0
   18.7356   20.0490    0.0000 F   0  0  0  0  0  0  0  0  0  0  0  0
   20.7846   19.5000    0.0000 C   0  0  0  0  0  0  0  0  0  0  0  0
   20.0346   20.7990    0.0000 F   0  0  0  0  0  0  0  0  0  0  0  0
   21.5346   18.2010    0.0000 F   0  0  0  0  0  0  0  0  0  0  0  0
   22.0836   20.2500    0.0000 C   0  0  0  0  0  0  0  0  0  0  0  0
   23.3827   21.0000    0.0000 F   0  0  0  0  0  0  0  0  0  0  0  0
   22.8336   18.9510    0.0000 F   0  0  0  0  0  0  0  0  0  0  0  0
   21.3336   21.5490    0.0000 F   0  0  0  0  0  0  0  0  0  0  0  0
  1  2  1  0
  2  3  1  0
  2  4  1  0
  4  5  1  0
  5  6  1  0
  6  7  1  0
  7  8  1  0
  8  9  2  0
  8 10  1  0
 10 11  1  0
 11 12  1  0
 12 13  1  0
 13 14  1  0
 14 15  1  0
 14 16  1  0
 14 17  1  0
 17 18  1  0
 17 19  1  0
 17 20  1  0
 20 21  1  0
 20 22  1  0
 20 23  1  0
 23 24  1  0
 23 25  1  0
 23 26  1  0
 26 27  1  0
 26 28  1  0
 26 29  1  0
 29 30  1  0
 29 31  1  0
 29 32  1  0
 32 33  1  0
 32 34  1  0
 32 35  1  0
 35 36  1  0
 35 37  1  0
 35 38  1  0
 38 39  1  0
 38 40  1  0
 38 41  1  0
 41 42  1  0
 41 43  1  0
 41 44  1  0
 44 45  1  0
 44 46  1  0
 44 47  1  0
 47 48  1  0
 47 49  1  0
 47 50  1  0
M  END
$$$$

     RDKit          2D

 34 33  0  0  0  0  0  0  0  0999 V2000
    0.0000    0.0000    0.0000 C   0  0  0  0  0  0  0  0  0  0  0  0
    1.2990    0.7500    0.0000 N   0  0  0  0  0  0  0  0  0  0  0  0
    2.5981    1.5000    0.0000 C   0  0  0  0  0  0  0  0  0  0  0  0
    2.0490   -0.5490    0.0000 C   0  0  0  0  0  0  0  0  0  0  0  0
    0.5490    2.0490    0.0000 C   0  0  0  0  0  0  0  0  0  0  0  0
    1.2990    3.3481    0.0000 C   0  0  0  0  0  0  0  0  0  0  0  0
    0.5490    4.6471    0.0000 C   0  0  0  0  0  0  0  0  0  0  0  0
    1.2990    5.9462    0.0000 N   0  0  0  0  0  0  0  0  0  0  0  0
    0.5490    7.2452    0.0000 C   0  0  0  0  0  0  0  0  0  0  0  0
   -0.9510    7.2452    0.0000 O   0  0  0  0  0  0  0  0  0  0  0  0
    1.2990    8.5442    0.0000 C   0  0  0  0  0  0  0  0  0  0  0  0
    0.5490    9.8433    0.0000 S   0  0  0  0  0  0  0  0  0  0  0  0
   -0.9510    9.8433    0.0000 O   0  0  0  0  0  0  0  0  0  0  0  0
    1.2990   11.1423    0.0000 C   0  0  0  0  0  0  0  0  0  0  0  0
    0.5490   12.4413    0.0000 C   0  0  0  0  0  0  0  0  0  0  0  0
    1.2990   13.7404    0.0000 C   0  0  0  0  0  0  0  0  0  0  0  0
    0.0000   14.4904    0.0000 F   0  0  0  0  0  0  0  0  0  0  0  0
    2.5981   12.9904    0.0000 F   0  0  0  0  0  0  0  0  0  0  0  0
    2.0490   15.0394    0.0000 C   0  0  0  0  0  0  0  0  0  0  0  0
    3.3481   14.2894    0.0000 F   0  0  0  0  0  0  0  0  0  0  0  0
    0.7500   15.7894    0.0000 F   0  0  0  0  0  0  0  0  0  0  0  0
    2.7990   16.3385    0.0000 C   0  0  0  0  0  0  0  0  0  0  0  0
    1.5000   17.0885    0.0000 F   0  0  0  0  0  0  0  0  0  0  0  0
    4.0981   15.5885    0.0000 F   0  0  0  0  0  0  0  0  0  0  0  0
    3.5490   17.6375    0.0000 C   0  0  0  0  0  0  0  0  0  0  0  0
    4.8481   16.8875    0.0000 F   0  0  0  0  0  0  0  0  0  0  0  0
    2.2500   18.3875    0.0000 F   0  0  0  0  0  0  0  0  0  0  0  0
    4.2990   18.9365    0.0000 C   0  0  0  0  0  0  0  0  0  0  0  0
    3.0000   19.6865    0.0000 F   0  0  0  0  0  0  0  0  0  0  0  0
    5.5981   18.1865    0.0000 F   0  0  0  0  0  0  0  0  0  0  0  0
    5.0490   20.2356    0.0000 C   0  0  0  0  0  0  0  0  0  0  0  0
    5.7990   21.5346    0.0000 F   0  0  0  0  0  0  0  0  0  0  0  0
    6.3481   19.4856    0.0000 F   0  0  0  0  0  0  0  0  0  0  0  0
    3.7500   20.9856    0.0000 F   0  0  0  0  0  0  0  0  0  0  0  0
  1  2  1  0
  2  3  1  0
  2  4  1  0
  2  5  1  0
  5  6  1  0
  6  7  1  0
  7  8  1  0
  8  9  1  0
  9 10  2  0
  9 11  1  0
 11 12  1  0
 12 13  2  0
 12 14  1  0
 14 15  1  0
 15 16  1  0
 16 17  1  0
 16 18  1  0
 16 19  1  0
 19 20  1  0
 19 21  1  0
 19 22  1  0
 22 23  1  0
 22 24  1  0
 22 25  1  0
 25 26  1  0
 25 27  1  0
 25 28  1  0
 28 29  1  0
 28 30  1  0
 28 31  1  0
 31 32  1  0
 31 33  1  0
 31 34  1  0
M  CHG  1   2   1
M  END
$$$$

     RDKit          2D

 30 29  0  0  0  0  0  0  0  0999 V2000
    0.0000    0.0000    0.0000 C   0  0  0  0  0  0  0  0  0  0  0  0
    1.2990    0.7500    0.0000 C   0  0  0  0  0  0  0  0  0  0  0  0
    2.5981    1.5000    0.0000 C   0  0  0  0  0  0  0  0  0  0  0  0
    2.0490   -0.5490    0.0000 C   0  0  0  0  0  0  0  0  0  0  0  0
    3.5490   -0.5490    0.0000 S   0  0  0  0  0  0  0  0  0  0  0  0
    3.5490   -2.0490    0.0000 O   0  0  0  0  0  0  0  0  0  0  0  0
    3.5490    0.9510    0.0000 O   0  0  0  0  0  0  0  0  0  0  0  0
    5.0490   -0.5490    0.0000 O   0  0  0  0  0  0  0  0  0  0  0  0
    0.5490    2.0490    0.0000 N   0  0  0  0  0  0  0  0  0  0  0  0
    1.2990    3.3481    0.0000 C   0  0  0  0  0  0  0  0  0  0  0  0
    2.7990    3.3481    0.0000 O   0  0  0  0  0  0  0  0  0  0  0  0
    0.5490    4.6471    0.0000 C   0  0  0  0  0  0  0  0  0  0  0  0
    1.2990    5.9462    0.0000 C   0  0  0  0  0  0  0  0  0  0  0  0
    0.5490    7.2452    0.0000 S   0  0  0  0  0  0  0  0  0  0  0  0
   -0.9510    7.2452    0.0000 O   0  0  0  0  0  0  0  0  0  0  0  0
    1.2990    8.5442    0.0000 C   0  0  0  0  0  0  0  0  0  0  0  0
    0.5490    9.8433    0.0000 C   0  0  0  0  0  0  0  0  0  0  0  0
    1.2990   11.1423    0.0000 C   0  0  0  0  0  0  0  0  0  0  0  0
    0.0000   11.8923    0.0000 F   0  0  0  0  0  0  0  0  0  0  0  0
    2.5981   10.3923    0.0000 F   0  0  0  0  0  0  0  0  0  0  0  0
    2.0490   12.4413    0.0000 C   0  0  0  0  0  0  0  0  0  0  0  0
    3.3481   11.6913    0.0000 F   0  0  0  0  0  0  0  0  0  0  0  0
    0.7500   13.1913    0.0000 F   0  0  0  0  0  0  0  0  0  0  0  0
    2.7990   13.7404    0.0000 C   0  0  0  0  0  0  0  0  0  0  0  0
    1.5000   14.4904    0.0000 F   0  0  0  0  0  0  0  0  0  0  0  0
    4.0981   12.9904    0.0000 F   0  0  0  0  0  0  0  0  0  0  0  0
    3.5490   15.0394    0.0000 C   0  0  0  0  0  0  0  0  0  0  0  0
    4.2990   16.3385    0.0000 F   0  0  0  0  0  0  0  0  0  0  0  0
    4.8481   14.2894    0.0000 F   0  0  0  0  0  0  0  0  0  0  0  0
    2.2500   15.7894    0.0000 F   0  0  0  0  0  0  0  0  0  0  0  0
  1  2  1  0
  2  3  1  0
  2  4  1  0
  4  5  1  0
  5  6  2  0
  5  7  2  0
  5  8  1  0
  2  9  1  0
  9 10  1  0
 10 11  2  0
 10 12  1  0
 12 13  1  0
 13 14  1  0
 14 15  2  0
 14 16  1  0
 16 17  1  0
 17 18  1  0
 18 19  1  0
 18 20  1  0
 18 21  1  0
 21 22  1  0
 21 23  1  0
 21 24  1  0
 24 25  1  0
 24 26  1  0
 24 27  1  0
 27 28  1  0
 27 29  1  0
 27 30  1  0
M  END
$$$$

     RDKit          2D

 47 46  0  0  0  0  0  0  0  0999 V2000
    0.0000    0.0000    0.0000 C   0  0  0  0  0  0  0  0  0  0  0  0
    1.2990    0.7500    0.0000 N   0  0  0  0  0  0  0  0  0  0  0  0
    2.5981    1.5000    0.0000 C   0  0  0  0  0  0  0  0  0  0  0  0
    0.5490    2.0490    0.0000 C   0  0  0  0  0  0  0  0  0  0  0  0
    1.2990    3.3481    0.0000 C   0  0  0  0  0  0  0  0  0  0  0  0
    0.5490    4.6471    0.0000 N   0  0  0  0  0  0  0  0  0  0  0  0
    1.2990    5.9462    0.0000 S   0  0  0  0  0  0  0  0  0  0  0  0
    2.5981    5.1962    0.0000 O   0  0  0  0  0  0  0  0  0  0  0  0
    0.0000    6.6962    0.0000 O   0  0  0  0  0  0  0  0  0  0  0  0
    2.0490    7.2452    0.0000 C   0  0  0  0  0  0  0  0  0  0  0  0
    3.5490    7.2452    0.0000 C   0  0  0  0  0  0  0  0  0  0  0  0
    4.2990    8.5442    0.0000 C   0  0  0  0  0  0  0  0  0  0  0  0
    5.5981    7.7942    0.0000 F   0  0  0  0  0  0  0  0  0  0  0  0
    3.0000    9.2942    0.0000 F   0  0  0  0  0  0  0  0  0  0  0  0
    5.0490    9.8433    0.0000 C   0  0  0  0  0  0  0  0  0  0  0  0
    3.7500   10.5933    0.0000 F   0  0  0  0  0  0  0  0  0  0  0  0
    6.3481    9.0933    0.0000 F   0  0  0  0  0  0  0  0  0  0  0  0
    5.7990   11.1423    0.0000 C   0  0  0  0  0  0  0  0  0  0  0  0
    7.0981   10.3923    0.0000 F   0  0  0  0  0  0  0  0  0  0  0  0
    4.5000   11.8923    0.0000 F   0  0  0  0  0  0  0  0  0  0  0  0
    6.5490   12.4413    0.0000 C   0  0  0  0  0  0  0  0  0  0  0  0
    5.2500   13.1913    0.0000 F   0  0  0  0  0  0  0  0  0  0  0  0
    7.8481   11.6913    0.0000 F   0  0  0  0  0  0  0  0  0  0  0  0
    7.2990   13.7404    0.0000 C   0  0  0  0  0  0  0  0  0  0  0  0
    8.5981   12.9904    0.0000 F   0  0  0  0  0  0  0  0  0  0  0  0
    6.0000   14.4904    0.0000 F   0  0  0  0  0  0  0  0  0  0  0  0
    8.0490   15.0394    0.0000 C   0  0  0  0  0  0  0  0  0  0  0  0
    6.7500   15.7894    0.0000 F   0  0  0  0  0  0  0  0  0  0  0  0
    9.3481   14.2894    0.0000 F   0  0  0  0  0  0  0  0  0  0  0  0
    8.7990   16.3385    0.0000 C   0  0  0  0  0  0  0  0  0  0  0  0
   10.0981   15.5885    0.0000 F   0  0  0  0  0  0  0  0  0  0  0  0
    7.5000   17.0885    0.0000 F   0  0  0  0  0  0  0  0  0  0  0  0
    9.5490   17.6375    0.0000 C   0  0  0  0  0  0  0  0  0  0  0  0
    8.2500   18.3875    0.0000 F   0  0  0  0  0  0  0  0  0  0  0  0
   10.8481   16.8875    0.0000 F   0  0  0  0  0  0  0  0  0  0  0  0
   10.2990   18.9365    0.0000 C   0  0  0  0  0  0  0  0  0  0  0  0
   11.5981   18.1865    0.0000 F   0  0  0  0  0  0  0  0  0  0  0  0
    9.0000   19.6865    0.0000 F   0  0  0  0  0  0  0  0  0  0  0  0
   11.0490   20.2356    0.0000 C   0  0  0  0  0  0  0  0  0  0  0  0
   11.7990   21.5346    0.0000 F   0  0  0  0  0  0  0  0  0  0  0  0
    9.7500   20.9856    0.0000 F   0  0  0  0  0  0  0  0  0  0  0  0
   12.3481   19.4856    0.0000 F   0  0  0  0  0  0  0  0  0  0  0  0
    2.0490   -0.5490    0.0000 C   0  0  0  0  0  0  0  0  0  0  0  0
    3.5490   -0.5490    0.0000 C   0  0  0  0  0  0  0  0  0  0  0  0
    4.2990   -1.8481    0.0000 C   0  0  0  0  0  0  0  0  0  0  0  0
    3.5490   -3.1471    0.0000 O   0  0  0  0  0  0  0  0  0  0  0  0
    5.7990   -1.8481    0.0000 O   0  0  0  0  0  0  0  0  0  0  0  0
  1  2  1  0
  2  3  1  0
  2  4  1  0
  4  5  1  0
  5  6  1  0
  6  7  1  0
  7  8  2  0
  7  9  2  0
  7 10  1  0
 10 11  1  0
 11 12  1  0
 12 13  1  0
 12 14  1  0
 12 15  1  0
 15 16  1  0
 15 17  1  0
 15 18  1  0
 18 19  1  0
 18 20  1  0
 18 21  1  0
 21 22  1  0
 21 23  1  0
 21 24  1  0
 24 25  1  0
 24 26  1  0
 24 27  1  0
 27 28  1  0
 27 29  1  0
 27 30  1  0
 30 31  1  0
 30 32  1  0
 30 33  1  0
 33 34  1  0
 33 35  1  0
 33 36  1  0
 36 37  1  0
 36 38  1  0
 36 39  1  0
 39 40  1  0
 39 41  1  0
 39 42  1  0
  2 43  1  0
 43 44  1  0
 44 45  1  0
 45 46  2  0
 45 47  1  0
M  CHG  2   2   1  47  -1
M  END
$$$$

     RDKit          2D

 41 39  0  0  0  0  0  0  0  0999 V2000
    0.0000    0.0000    0.0000 C   0  0  0  0  0  0  0  0  0  0  0  0
    1.2990    0.7500    0.0000 S   0  0  0  0  0  0  0  0  0  0  0  0
    2.0490   -0.5490    0.0000 O   0  0  0  0  0  0  0  0  0  0  0  0
    0.5490    2.0490    0.0000 O   0  0  0  0  0  0  0  0  0  0  0  0
    2.5981    1.5000    0.0000 O   0  0  0  0  0  0  0  0  0  0  0  0
   21.2894    4.0981    0.0000 C   0  0  0  0  0  0  0  0  0  0  0  0
   19.9904    3.3481    0.0000 N   0  0  0  0  0  0  0  0  0  0  0  0
   18.6913    2.5981    0.0000 C   0  0  0  0  0  0  0  0  0  0  0  0
   20.7404    2.0490    0.0000 C   0  0  0  0  0  0  0  0  0  0  0  0
   19.2404    4.6471    0.0000 C   0  0  0  0  0  0  0  0  0  0  0  0
   17.7404    4.6471    0.0000 C   0  0  0  0  0  0  0  0  0  0  0  0
   16.9904    5.9462    0.0000 C   0  0  0  0  0  0  0  0  0  0  0  0
   15.4904    5.9462    0.0000 N   0  0  0  0  0  0  0  0  0  0  0  0
   14.7404    7.2452    0.0000 S   0  0  0  0  0  0  0  0  0  0  0  0
   16.0394    7.9952    0.0000 O   0  0  0  0  0  0  0  0  0  0  0  0
   14.1038    6.7654    0.0000 O   0  0  0  0  0  0  0  0  0  0  0  0
   13.9904    8.5442    0.0000 C   0  0  0  0  0  0  0  0  0  0  0  0
   15.2894    9.2942    0.0000 F   0  0  0  0  0  0  0  0  0  0  0  0
   13.2404    9.8433    0.0000 F   0  0  0  0  0  0  0  0  0  0  0  0
   12.6913    7.7942    0.0000 C   0  0  0  0  0  0  0  0  0  0  0  0
   13.0374    6.9789    0.0000 F   0  0  0  0  0  0  0  0  0  0  0  0
   11.9413    9.0933    0.0000 F   0  0  0  0  0  0  0  0  0  0  0  0
   11.3923    7.0442    0.0000 C   0  0  0  0  0  0  0  0  0  0  0  0
   12.1423    5.7452    0.0000 F   0  0  0  0  0  0  0  0  0  0  0  0
   10.6423    8.3433    0.0000 F   0  0  0  0  0  0  0  0  0  0  0  0
   10.0933    6.2942    0.0000 C   0  0  0  0  0  0  0  0  0  0  0  0
    9.3433    7.5933    0.0000 F   0  0  0  0  0  0  0  0  0  0  0  0
   10.8433    4.9952    0.0000 F   0  0  0  0  0  0  0  0  0  0  0  0
    8.7942    5.5442    0.0000 C   0  0  0  0  0  0  0  0  0  0  0  0
    8.0442    6.8433    0.0000 F   0  0  0  0  0  0  0  0  0  0  0  0
    9.5442    4.2452    0.0000 F   0  0  0  0  0  0  0  0  0  0  0  0
    7.4952    4.7942    0.0000 C   0  0  0  0  0  0  0  0  0  0  0  0
    8.2452    3.4952    0.0000 F   0  0  0  0  0  0  0  0  0  0  0  0
    6.7452    6.0933    0.0000 F   0  0  0  0  0  0  0  0  0  0  0  0
    6.1962    4.0442    0.0000 C   0  0  0  0  0  0  0  0  0  0  0  0
    5.4462    5.3433    0.0000 F   0  0  0  0  0  0  0  0  0  0  0  0
    6.9462    2.7452    0.0000 F   0  0  0  0  0  0  0  0  0  0  0  0
    4.8971    3.2942    0.0000 C   0  0  0  0  0  0  0  0  0  0  0  0
    3.5981    2.5442    0.0000 F   0  0  0  0  0  0  0  0  0  0  0  0
    5.6471    1.9952    0.0000 F   0  0  0  0  0  0  0  0  0  0  0  0
    4.1471    4.5933    0.0000 F   0  0  0  0  0  0  0  0  0  0  0  0
  1  2  1  0
  2  3  2  0
  2  4  2  0
  2  5  1  0
  6  7  1  0
  7  8  1  0
  7  9  1  0
  7 10  1  0
 10 11  1  0
 11 12  1  0
 12 13  1  0
 13 14  1  0
 14 15  2  0
 14 16  2  0
 14 17  1  0
 17 18  1  0
 17 19  1  0
 17 20  1  0
 20 21  1  0
 20 22  1  0
 20 23  1  0
 23 24  1  0
 23 25  1  0
 23 26  1  0
 26 27  1  0
 26 28  1  0
 26 29  1  0
 29 30  1  0
 29 31  1  0
 29 32  1  0
 32 33  1  0
 32 34  1  0
 32 35  1  0
 35 36  1  0
 35 37  1  0
 35 38  1  0
 38 39  1  0
 38 40  1  0
 38 41  1  0
M  CHG  2   5  -1   7   1
M  END
$$$$

     RDKit          2D

 30 28  0  0  0  0  0  0  0  0999 V2000
    0.0000    0.0000    0.0000 C   0  0  0  0  0  0  0  0  0  0  0  0
    1.2990    0.7500    0.0000 C   0  0  0  0  0  0  0  0  0  0  0  0
    2.5981   -0.0000    0.0000 N   0  0  0  0  0  0  0  0  0  0  0  0
    3.8971    0.7500    0.0000 C   0  0  0  0  0  0  0  0  0  0  0  0
    5.1962   -0.0000    0.0000 C   0  0  0  0  0  0  0  0  0  0  0  0
    6.4952    0.7500    0.0000 C   0  0  0  0  0  0  0  0  0  0  0  0
    7.7942   -0.0000    0.0000 Si  0  0  0  0  0  4  0  0  0  0  0  0
    9.0933   -0.7500    0.0000 O   0  0  0  0  0  0  0  0  0  0  0  0
    9.0933   -2.2500    0.0000 C   0  0  0  0  0  0  0  0  0  0  0  0
    8.5442    1.2990    0.0000 O   0  0  0  0  0  0  0  0  0  0  0  0
   10.0442    1.2990    0.0000 C   0  0  0  0  0  0  0  0  0  0  0  0
    7.0442   -1.2990    0.0000 O   0  0  0  0  0  0  0  0  0  0  0  0
    7.7942   -2.5981    0.0000 C   0  0  0  0  0  0  0  0  0  0  0  0
    2.5981   -1.5000    0.0000 S   0  0  0  0  0  0  0  0  0  0  0  0
    1.8069   -1.4028    0.0000 O   0  0  0  0  0  0  0  0  0  0  0  0
    4.0981   -1.5000    0.0000 O   0  0  0  0  0  0  0  0  0  0  0  0
    2.5981   -3.0000    0.0000 C   0  0  0  0  0  0  0  0  0  0  0  0
    4.0981   -3.0000    0.0000 F   0  0  0  0  0  0  0  0  0  0  0  0
    2.5981   -4.5000    0.0000 F   0  0  0  0  0  0  0  0  0  0  0  0
    1.0981   -3.0000    0.0000 C   0  0  0  0  0  0  0  0  0  0  0  0
    0.9901   -2.1209    0.0000 F   0  0  0  0  0  0  0  0  0  0  0  0
    1.0981   -4.5000    0.0000 F   0  0  0  0  0  0  0  0  0  0  0  0
   -0.4019   -3.0000    0.0000 C   0  0  0  0  0  0  0  0  0  0  0  0
   -0.4019   -4.5000    0.0000 F   0  0  0  0  0  0  0  0  0  0  0  0
   -0.4019   -1.5000    0.0000 F   0  0  0  0  0  0  0  0  0  0  0  0
   -1.9019   -3.0000    0.0000 C   0  0  0  0  0  0  0  0  0  0  0  0
   -3.4019   -3.0000    0.0000 F   0  0  0  0  0  0  0  0  0  0  0  0
   -1.9019   -1.5000    0.0000 F   0  0  0  0  0  0  0  0  0  0  0  0
   -1.9019   -4.5000    0.0000 F   0  0  0  0  0  0  0  0  0  0  0  0
    0.0000    2.2990    0.0000 F   0  0  0  0  0  0  0  0  0  0  0  0
  1  2  1  0
  2  3  1  0
  3  4  1  0
  4  5  1  0
  5  6  1  0
  6  7  1  0
  7  8  1  0
  8  9  1  0
  7 10  1  0
 10 11  1  0
  7 12  1  0
 12 13  1  0
  3 14  1  0
 14 15  2  0
 14 16  2  0
 14 17  1  0
 17 18  1  0
 17 19  1  0
 17 20  1  0
 20 21  1  0
 20 22  1  0
 20 23  1  0
 23 24  1  0
 23 25  1  0
 23 26  1  0
 26 27  1  0
 26 28  1  0
 26 29  1  0
M  END
$$$$

     RDKit          2D

 31 30  0  0  0  0  0  0  0  0999 V2000
    0.0000    0.0000    0.0000 C   0  0  0  0  0  0  0  0  0  0  0  0
    1.2990    0.7500    0.0000 O   0  0  0  0  0  0  0  0  0  0  0  0
    2.5981   -0.0000    0.0000 Si  0  0  0  0  0  4  0  0  0  0  0  0
    3.8971   -0.7500    0.0000 C   0  0  0  0  0  0  0  0  0  0  0  0
    3.8971   -2.2500    0.0000 C   0  0  0  0  0  0  0  0  0  0  0  0
    5.1962   -3.0000    0.0000 C   0  0  0  0  0  0  0  0  0  0  0  0
    5.1962   -4.5000    0.0000 N   0  0  0  0  0  0  0  0  0  0  0  0
    6.4952   -5.2500    0.0000 C   0  0  0  0  0  0  0  0  0  0  0  0
    7.7942   -4.5000    0.0000 O   0  0  0  0  0  0  0  0  0  0  0  0
    6.4952   -6.7500    0.0000 C   0  0  0  0  0  0  0  0  0  0  0  0
    7.9952   -6.7500    0.0000 F   0  0  0  0  0  0  0  0  0  0  0  0
    4.9952   -6.7500    0.0000 F   0  0  0  0  0  0  0  0  0  0  0  0
    6.4952   -8.2500    0.0000 O   0  0  0  0  0  0  0  0  0  0  0  0
    5.1962   -9.0000    0.0000 C   0  0  0  0  0  0  0  0  0  0  0  0
    4.4462   -7.7010    0.0000 F   0  0  0  0  0  0  0  0  0  0  0  0
    5.9462  -10.2990    0.0000 F   0  0  0  0  0  0  0  0  0  0  0  0
    3.8971   -9.7500    0.0000 C   0  0  0  0  0  0  0  0  0  0  0  0
    3.1471   -8.4510    0.0000 F   0  0  0  0  0  0  0  0  0  0  0  0
    4.6471  -11.0490    0.0000 F   0  0  0  0  0  0  0  0  0  0  0  0
    2.5981  -10.5000    0.0000 O   0  0  0  0  0  0  0  0  0  0  0  0
    2.5981  -12.0000    0.0000 C   0  0  0  0  0  0  0  0  0  0  0  0
    4.0981  -12.0000    0.0000 F   0  0  0  0  0  0  0  0  0  0  0  0
    1.0981  -12.0000    0.0000 F   0  0  0  0  0  0  0  0  0  0  0  0
    2.5981  -13.5000    0.0000 C   0  0  0  0  0  0  0  0  0  0  0  0
    2.5981  -15.0000    0.0000 F   0  0  0  0  0  0  0  0  0  0  0  0
    4.0981  -13.5000    0.0000 F   0  0  0  0  0  0  0  0  0  0  0  0
    1.0981  -13.5000    0.0000 F   0  0  0  0  0  0  0  0  0  0  0  0
    1.8481   -1.2990    0.0000 O   0  0  0  0  0  0  0  0  0  0  0  0
    2.5981   -2.5981    0.0000 C   0  0  0  0  0  0  0  0  0  0  0  0
    3.3481    1.2990    0.0000 O   0  0  0  0  0  0  0  0  0  0  0  0
    4.8481    1.2990    0.0000 C   0  0  0  0  0  0  0  0  0  0  0  0
  1  2  1  0
  2  3  1  0
  3  4  1  0
  4  5  1  0
  5  6  1  0
  6  7  1  0
  7  8  1  0
  8  9  2  0
  8 10  1  0
 10 11  1  0
 10 12  1  0
 10 13  1  0
 13 14  1  0
 14 15  1  0
 14 16  1  0
 14 17  1  0
 17 18  1  0
 17 19  1  0
 17 20  1  0
 20 21  1  0
 21 22  1  0
 21 23  1  0
 21 24  1  0
 24 25  1  0
 24 26  1  0
 24 27  1  0
  3 28  1  0
 28 29  1  0
  3 30  1  0
 30 31  1  0
M  END
$$$$

     RDKit          2D

 42 41  0  0  0  0  0  0  0  0999 V2000
    0.0000    0.0000    0.0000 C   0  0  0  0  0  0  0  0  0  0  0  0
    1.2990    0.7500    0.0000 N   0  0  0  0  0  0  0  0  0  0  0  0
    2.5981    1.5000    0.0000 C   0  0  0  0  0  0  0  0  0  0  0  0
    2.0490   -0.5490    0.0000 C   0  0  0  0  0  0  0  0  0  0  0  0
    3.5490   -0.5490    0.0000 C   0  0  0  0  0  0  0  0  0  0  0  0
    4.2990   -1.8481    0.0000 C   0  0  0  0  0  0  0  0  0  0  0  0
    5.7990   -1.8481    0.0000 N   0  0  0  0  0  0  0  0  0  0  0  0
    6.5490   -3.1471    0.0000 C   0  0  0  0  0  0  0  0  0  0  0  0
    8.0490   -3.1471    0.0000 C   0  0  0  0  0  0  0  0  0  0  0  0
    8.7990   -4.4462    0.0000 C   0  0  0  0  0  0  0  0  0  0  0  0
   10.2990   -4.4462    0.0000 S   0  0  0  0  0  0  0  0  0  0  0  0
   10.2990   -5.9462    0.0000 O   0  0  0  0  0  0  0  0  0  0  0  0
   10.1162   -2.9573    0.0000 O   0  0  0  0  0  0  0  0  0  0  0  0
   11.7879   -4.6290    0.0000 O   0  0  0  0  0  0  0  0  0  0  0  0
    6.5490   -0.5490    0.0000 S   0  0  0  0  0  0  0  0  0  0  0  0
    5.2500    0.2010    0.0000 O   0  0  0  0  0  0  0  0  0  0  0  0
    7.1857   -1.0288    0.0000 O   0  0  0  0  0  0  0  0  0  0  0  0
    7.2990    0.7500    0.0000 C   0  0  0  0  0  0  0  0  0  0  0  0
    6.0000    1.5000    0.0000 F   0  0  0  0  0  0  0  0  0  0  0  0
    8.0490    2.0490    0.0000 F   0  0  0  0  0  0  0  0  0  0  0  0
    8.5981    0.0000    0.0000 C   0  0  0  0  0  0  0  0  0  0  0  0
    9.3481    1.2990    0.0000 F   0  0  0  0  0  0  0  0  0  0  0  0
    8.2520   -0.8153    0.0000 F   0  0  0  0  0  0  0  0  0  0  0  0
    9.8971   -0.7500    0.0000 C   0  0  0  0  0  0  0  0  0  0  0  0
   10.6471    0.5490    0.0000 F   0  0  0  0  0  0  0  0  0  0  0  0
    9.1471   -2.0490    0.0000 F   0  0  0  0  0  0  0  0  0  0  0  0
   11.1962   -1.5000    0.0000 C   0  0  0  0  0  0  0  0  0  0  0  0
   10.2934   -2.6979    0.0000 F   0  0  0  0  0  0  0  0  0  0  0  0
   11.9462   -0.2010    0.0000 F   0  0  0  0  0  0  0  0  0  0  0  0
   12.4952   -2.2500    0.0000 C   0  0  0  0  0  0  0  0  0  0  0  0
   11.9091   -3.6308    0.0000 F   0  0  0  0  0  0  0  0  0  0  0  0
   13.2452   -0.9510    0.0000 F   0  0  0  0  0  0  0  0  0  0  0  0
   13.7942   -3.0000    0.0000 C   0  0  0  0  0  0  0  0  0  0  0  0
   15.0933   -3.7500    0.0000 F   0  0  0  0  0  0  0  0  0  0  0  0
   14.5442   -1.7010    0.0000 F   0  0  0  0  0  0  0  0  0  0  0  0
   13.0442   -4.2990    0.0000 F   0  0  0  0  0  0  0  0  0  0  0  0
    0.5490    2.0490    0.0000 C   0  0  0  0  0  0  0  0  0  0  0  0
    1.2990    3.3481    0.0000 C   0  0  0  0  0  0  0  0  0  0  0  0
    0.5490    4.6471    0.0000 O   0  0  0  0  0  0  0  0  0  0  0  0
    1.2990    5.9462    0.0000 C   0  0  0  0  0  0  0  0  0  0  0  0
    0.5490    7.2452    0.0000 C   0  0  0  0  0  0  0  0  0  0  0  0
    1.2990    8.5442    0.0000 O   0  0  0  0  0  0  0  0  0  0  0  0
  1  2  1  0
  2  3  1  0
  2  4  1  0
  4  5  1  0
  5  6  1  0
  6  7  1  0
  7  8  1  0
  8  9  1  0
  9 10  1  0
 10 11  1  0
 11 12  2  0
 11 13  2  0
 11 14  1  0
  7 15  1  0
 15 16  2  0
 15 17  2  0
 15 18  1  0
 18 19  1  0
 18 20  1  0
 18 21  1  0
 21 22  1  0
 21 23  1  0
 21 24  1  0
 24 25  1  0
 24 26  1  0
 24 27  1  0
 27 28  1  0
 27 29  1  0
 27 30  1  0
 30 31  1  0
 30 32  1  0
 30 33  1  0
 33 34  1  0
 33 35  1  0
 33 36  1  0
  2 37  1  0
 37 38  1  0
 38 39  1  0
 39 40  1  0
 40 41  1  0
 41 42  1  0
M  CHG  2   2   1  14  -1
M  END
$$$$

     RDKit          2D

 36 35  0  0  0  0  0  0  0  0999 V2000
    0.0000    0.0000    0.0000 C   0  0  0  0  0  0  0  0  0  0  0  0
    1.2990    0.7500    0.0000 C   0  0  0  0  0  0  0  0  0  0  0  0
    2.5981   -0.0000    0.0000 O   0  0  0  0  0  0  0  0  0  0  0  0
    3.8971    0.7500    0.0000 C   0  0  0  0  0  0  0  0  0  0  0  0
    3.8971    2.2500    0.0000 O   0  0  0  0  0  0  0  0  0  0  0  0
    5.1962   -0.0000    0.0000 C   0  0  0  0  0  0  0  0  0  0  0  0
    5.9462    1.2990    0.0000 F   0  0  0  0  0  0  0  0  0  0  0  0
    4.4462   -1.2990    0.0000 F   0  0  0  0  0  0  0  0  0  0  0  0
    6.4952   -0.7500    0.0000 C   0  0  0  0  0  0  0  0  0  0  0  0
    5.7452   -2.0490    0.0000 F   0  0  0  0  0  0  0  0  0  0  0  0
    7.2452    0.5490    0.0000 F   0  0  0  0  0  0  0  0  0  0  0  0
    7.7942   -1.5000    0.0000 C   0  0  0  0  0  0  0  0  0  0  0  0
    8.5442   -0.2010    0.0000 F   0  0  0  0  0  0  0  0  0  0  0  0
    7.0442   -2.7990    0.0000 F   0  0  0  0  0  0  0  0  0  0  0  0
    9.0933   -2.2500    0.0000 C   0  0  0  0  0  0  0  0  0  0  0  0
    8.3433   -3.5490    0.0000 F   0  0  0  0  0  0  0  0  0  0  0  0
    9.8433   -0.9510    0.0000 F   0  0  0  0  0  0  0  0  0  0  0  0
   10.3923   -3.0000    0.0000 C   0  0  0  0  0  0  0  0  0  0  0  0
   11.1423   -1.7010    0.0000 F   0  0  0  0  0  0  0  0  0  0  0  0
    9.6423   -4.2990    0.0000 F   0  0  0  0  0  0  0  0  0  0  0  0
   11.6913   -3.7500    0.0000 C   0  0  0  0  0  0  0  0  0  0  0  0
   10.9413   -5.0490    0.0000 F   0  0  0  0  0  0  0  0  0  0  0  0
   12.4413   -2.4510    0.0000 F   0  0  0  0  0  0  0  0  0  0  0  0
   12.9904   -4.5000    0.0000 C   0  0  0  0  0  0  0  0  0  0  0  0
   13.7404   -3.2010    0.0000 F   0  0  0  0  0  0  0  0  0  0  0  0
   12.2404   -5.7990    0.0000 F   0  0  0  0  0  0  0  0  0  0  0  0
   14.2894   -5.2500    0.0000 C   0  0  0  0  0  0  0  0  0  0  0  0
   13.5394   -6.5490    0.0000 F   0  0  0  0  0  0  0  0  0  0  0  0
   15.0394   -3.9510    0.0000 F   0  0  0  0  0  0  0  0  0  0  0  0
   15.5885   -6.0000    0.0000 C   0  0  0  0  0  0  0  0  0  0  0  0
   16.3385   -4.7010    0.0000 F   0  0  0  0  0  0  0  0  0  0  0  0
   14.8385   -7.2990    0.0000 F   0  0  0  0  0  0  0  0  0  0  0  0
   16.8875   -6.7500    0.0000 C   0  0  0  0  0  0  0  0  0  0  0  0
   18.1865   -7.5000    0.0000 F   0  0  0  0  0  0  0  0  0  0  0  0
   16.1375   -8.0490    0.0000 F   0  0  0  0  0  0  0  0  0  0  0  0
   17.6375   -5.4510    0.0000 F   0  0  0  0  0  0  0  0  0  0  0  0
  1  2  1  0
  2  3  1  0
  3  4  1  0
  4  5  2  0
  4  6  1  0
  6  7  1  0
  6  8  1  0
  6  9  1  0
  9 10  1  0
  9 11  1  0
  9 12  1  0
 12 13  1  0
 12 14  1  0
 12 15  1  0
 15 16  1  0
 15 17  1  0
 15 18  1  0
 18 19  1  0
 18 20  1  0
 18 21  1  0
 21 22  1  0
 21 23  1  0
 21 24  1  0
 24 25  1  0
 24 26  1  0
 24 27  1  0
 27 28  1  0
 27 29  1  0
 27 30  1  0
 30 31  1  0
 30 32  1  0
 30 33  1  0
 33 34  1  0
 33 35  1  0
 33 36  1  0
M  END
$$$$

     RDKit          2D

 65 64  0  0  0  0  0  0  0  0999 V2000
   -3.3481    1.2990    0.0000 O   0  0  0  0  0  0  0  0  0  0  0  0
   -2.5981    0.0000    0.0000 P   0  0  0  0  0  0  0  0  0  0  0  0
   -1.8481   -1.2990    0.0000 O   0  0  0  0  0  0  0  0  0  0  0  0
   -1.2990    0.7500    0.0000 O   0  0  0  0  0  0  0  0  0  0  0  0
    0.0000    0.0000    0.0000 C   0  0  0  0  0  0  0  0  0  0  0  0
    1.2990    0.7500    0.0000 C   0  0  0  0  0  0  0  0  0  0  0  0
    2.5981   -0.0000    0.0000 C   0  0  0  0  0  0  0  0  0  0  0  0
    3.3481    1.2990    0.0000 F   0  0  0  0  0  0  0  0  0  0  0  0
    1.8481   -1.2990    0.0000 F   0  0  0  0  0  0  0  0  0  0  0  0
    3.8971   -0.7500    0.0000 C   0  0  0  0  0  0  0  0  0  0  0  0
    3.1471   -2.0490    0.0000 F   0  0  0  0  0  0  0  0  0  0  0  0
    4.6471    0.5490    0.0000 F   0  0  0  0  0  0  0  0  0  0  0  0
    5.1962   -1.5000    0.0000 C   0  0  0  0  0  0  0  0  0  0  0  0
    5.9462   -0.2010    0.0000 F   0  0  0  0  0  0  0  0  0  0  0  0
    4.4462   -2.7990    0.0000 F   0  0  0  0  0  0  0  0  0  0  0  0
    6.4952   -2.2500    0.0000 C   0  0  0  0  0  0  0  0  0  0  0  0
    5.7452   -3.5490    0.0000 F   0  0  0  0  0  0  0  0  0  0  0  0
    7.2452   -0.9510    0.0000 F   0  0  0  0  0  0  0  0  0  0  0  0
    7.7942   -3.0000    0.0000 C   0  0  0  0  0  0  0  0  0  0  0  0
    8.5442   -1.7010    0.0000 F   0  0  0  0  0  0  0  0  0  0  0  0
    7.0442   -4.2990    0.0000 F   0  0  0  0  0  0  0  0  0  0  0  0
    9.0933   -3.7500    0.0000 C   0  0  0  0  0  0  0  0  0  0  0  0
   10.3923   -4.5000    0.0000 F   0  0  0  0  0  0  0  0  0  0  0  0
    8.3433   -5.0490    0.0000 F   0  0  0  0  0  0  0  0  0  0  0  0
    9.8433   -2.4510    0.0000 F   0  0  0  0  0  0  0  0  0  0  0  0
   -3.8971   -0.7500    0.0000 O   0  0  0  0  0  0  0  0  0  0  0  0
   -3.8971   -2.2500    0.0000 C   0  0  0  0  0  0  0  0  0  0  0  0
   -5.1962   -3.0000    0.0000 C   0  0  0  0  0  0  0  0  0  0  0  0
   -5.1962   -4.5000    0.0000 C   0  0  0  0  0  0  0  0  0  0  0  0
   -6.6962   -4.5000    0.0000 F   0  0  0  0  0  0  0  0  0  0  0  0
   -3.6962   -4.5000    0.0000 F   0  0  0  0  0  0  0  0  0  0  0  0
   -5.1962   -6.0000    0.0000 C   0  0  0  0  0  0  0  0  0  0  0  0
   -3.6962   -6.0000    0.0000 F   0  0  0  0  0  0  0  0  0  0  0  0
   -6.6962   -6.0000    0.0000 F   0  0  0  0  0  0  0  0  0  0  0  0
   -5.1962   -7.5000    0.0000 C   0  0  0  0  0  0  0  0  0  0  0  0
   -6.6962   -7.5000    0.0000 F   0  0  0  0  0  0  0  0  0  0  0  0
   -3.6962   -7.5000    0.0000 F   0  0  0  0  0  0  0  0  0  0  0  0
   -5.1962   -9.0000    0.0000 C   0  0  0  0  0  0  0  0  0  0  0  0
   -3.6962   -9.0000    0.0000 F   0  0  0  0  0  0  0  0  0  0  0  0
   -6.6962   -9.0000    0.0000 F   0  0  0  0  0  0  0  0  0  0  0  0
   -5.1962  -10.5000    0.0000 C   0  0  0  0  0  0  0  0  0  0  0  0
   -6.6962  -10.5000    0.0000 F   0  0  0  0  0  0  0  0  0  0  0  0
   -3.6962  -10.5000    0.0000 F   0  0  0  0  0  0  0  0  0  0  0  0
   -5.1962  -12.0000    0.0000 C   0  0  0  0  0  0  0  0  0  0  0  0
   -3.6962  -12.0000    0.0000 F   0  0  0  0  0  0  0  0  0  0  0  0
   -6.6962  -12.0000    0.0000 F   0  0  0  0  0  0  0  0  0  0  0  0
   -5.1962  -13.5000    0.0000 C   0  0  0  0  0  0  0  0  0  0  0  0
   -6.6962  -13.5000    0.0000 F   0  0  0  0  0  0  0  0  0  0  0  0
   -3.6962  -13.5000    0.0000 F   0  0  0  0  0  0  0  0  0  0  0  0
   -5.1962  -15.0000    0.0000 C   0  0  0  0  0  0  0  0  0  0  0  0
   -3.6962  -15.0000    0.0000 F   0  0  0  0  0  0  0  0  0  0  0  0
   -6.6962  -15.0000    0.0000 F   0  0  0  0  0  0  0  0  0  0  0  0
   -5.1962  -16.5000    0.0000 C   0  0  0  0  0  0  0  0  0  0  0  0
   -6.6962  -16.5000    0.0000 F   0  0  0  0  0  0  0  0  0  0  0  0
   -3.6962  -16.5000    0.0000 F   0  0  0  0  0  0  0  0  0  0  0  0
   -5.1962  -18.0000    0.0000 C   0  0  0  0  0  0  0  0  0  0  0  0
   -3.6962  -18.0000    0.0000 F   0  0  0  0  0  0  0  0  0  0  0  0
   -6.6962  -18.0000    0.0000 F   0  0  0  0  0  0  0  0  0  0  0  0
   -5.1962  -19.5000    0.0000 C   0  0  0  0  0  0  0  0  0  0  0  0
   -6.6962  -19.5000    0.0000 F   0  0  0  0  0  0  0  0  0  0  0  0
   -3.6962  -19.5000    0.0000 F   0  0  0  0  0  0  0  0  0  0  0  0
   -5.1962  -21.0000    0.0000 C   0  0  0  0  0  0  0  0  0  0  0  0
   -5.1962  -22.5000    0.0000 F   0  0  0  0  0  0  0  0  0  0  0  0
   -3.6962  -21.0000    0.0000 F   0  0  0  0  0  0  0  0  0  0  0  0
   -6.6962  -21.0000    0.0000 F   0  0  0  0  0  0  0  0  0  0  0  0
  1  2  2  0
  2  3  1  0
  2  4  1  0
  4  5  1  0
  5  6  1  0
  6  7  1  0
  7  8  1  0
  7  9  1  0
  7 10  1  0
 10 11  1  0
 10 12  1  0
 10 13  1  0
 13 14  1  0
 13 15  1  0
 13 16  1  0
 16 17  1  0
 16 18  1  0
 16 19  1  0
 19 20  1  0
 19 21  1  0
 19 22  1  0
 22 23  1  0
 22 24  1  0
 22 25  1  0
  2 26  1  0
 26 27  1  0
 27 28  1  0
 28 29  1  0
 29 30  1  0
 29 31  1  0
 29 32  1  0
 32 33  1  0
 32 34  1  0
 32 35  1  0
 35 36  1  0
 35 37  1  0
 35 38  1  0
 38 39  1  0
 38 40  1  0
 38 41  1  0
 41 42  1  0
 41 43  1  0
 41 44  1  0
 44 45  1  0
 44 46  1  0
 44 47  1  0
 47 48  1  0
 47 49  1  0
 47 50  1  0
 50 51  1  0
 50 52  1  0
 50 53  1  0
 53 54  1  0
 53 55  1  0
 53 56  1  0
 56 57  1  0
 56 58  1  0
 56 59  1  0
 59 60  1  0
 59 61  1  0
 59 62  1  0
 62 63  1  0
 62 64  1  0
 62 65  1  0
M  END
$$$$

     RDKit          2D

 34 32  0  0  0  0  0  0  0  0999 V2000
   19.1865    2.2500    0.0000 O   0  0  0  0  0  0  0  0  0  0  0  0
   19.1865    0.7500    0.0000 C   0  0  0  0  0  0  0  0  0  0  0  0
   20.4856   -0.0000    0.0000 O   0  0  0  0  0  0  0  0  0  0  0  0
   17.8875    0.0000    0.0000 C   0  0  0  0  0  0  0  0  0  0  0  0
   16.5885    0.7500    0.0000 C   0  0  0  0  0  0  0  0  0  0  0  0
   15.2894    0.0000    0.0000 S   0  0  0  0  0  0  0  0  0  0  0  0
   13.9904    0.7500    0.0000 C   0  0  0  0  0  0  0  0  0  0  0  0
   12.6913    0.0000    0.0000 C   0  0  0  0  0  0  0  0  0  0  0  0
   11.3923    0.7500    0.0000 C   0  0  0  0  0  0  0  0  0  0  0  0
   10.6423   -0.5490    0.0000 F   0  0  0  0  0  0  0  0  0  0  0  0
   12.1423    2.0490    0.0000 F   0  0  0  0  0  0  0  0  0  0  0  0
   10.0933    1.5000    0.0000 C   0  0  0  0  0  0  0  0  0  0  0  0
   10.8433    2.7990    0.0000 F   0  0  0  0  0  0  0  0  0  0  0  0
    9.3433    0.2010    0.0000 F   0  0  0  0  0  0  0  0  0  0  0  0
    8.7942    2.2500    0.0000 C   0  0  0  0  0  0  0  0  0  0  0  0
    8.0442    0.9510    0.0000 F   0  0  0  0  0  0  0  0  0  0  0  0
    9.5442    3.5490    0.0000 F   0  0  0  0  0  0  0  0  0  0  0  0
    7.4952    3.0000    0.0000 C   0  0  0  0  0  0  0  0  0  0  0  0
    8.2452    4.2990    0.0000 F   0  0  0  0  0  0  0  0  0  0  0  0
    6.7452    1.7010    0.0000 F   0  0  0  0  0  0  0  0  0  0  0  0
    6.1962    3.7500    0.0000 C   0  0  0  0  0  0  0  0  0  0  0  0
    5.4462    2.4510    0.0000 F   0  0  0  0  0  0  0  0  0  0  0  0
    6.9462    5.0490    0.0000 F   0  0  0  0  0  0  0  0  0  0  0  0
    4.8971    4.5000    0.0000 C   0  0  0  0  0  0  0  0  0  0  0  0
    5.6471    5.7990    0.0000 F   0  0  0  0  0  0  0  0  0  0  0  0
    4.1471    3.2010    0.0000 F   0  0  0  0  0  0  0  0  0  0  0  0
    3.5981    5.2500    0.0000 C   0  0  0  0  0  0  0  0  0  0  0  0
    2.8481    3.9510    0.0000 F   0  0  0  0  0  0  0  0  0  0  0  0
    4.3481    6.5490    0.0000 F   0  0  0  0  0  0  0  0  0  0  0  0
    2.2990    6.0000    0.0000 C   0  0  0  0  0  0  0  0  0  0  0  0
    1.0000    6.7500    0.0000 F   0  0  0  0  0  0  0  0  0  0  0  0
    3.0490    7.2990    0.0000 F   0  0  0  0  0  0  0  0  0  0  0  0
    1.5490    4.7010    0.0000 F   0  0  0  0  0  0  0  0  0  0  0  0
    0.0000    0.0000    0.0000 Li  0  0  0  0  0 15  0  0  0  0  0  0
  1  2  2  0
  2  3  1  0
  2  4  1  0
  4  5  1  0
  5  6  1  0
  6  7  1  0
  7  8  1  0
  8  9  1  0
  9 10  1  0
  9 11  1  0
  9 12  1  0
 12 13  1  0
 12 14  1  0
 12 15  1  0
 15 16  1  0
 15 17  1  0
 15 18  1  0
 18 19  1  0
 18 20  1  0
 18 21  1  0
 21 22  1  0
 21 23  1  0
 21 24  1  0
 24 25  1  0
 24 26  1  0
 24 27  1  0
 27 28  1  0
 27 29  1  0
 27 30  1  0
 30 31  1  0
 30 32  1  0
 30 33  1  0
M  CHG  2   3  -1  34   1
M  END
$$$$

     RDKit          2D

 37 36  0  0  0  0  0  0  0  0999 V2000
   -1.4888   -1.3172    0.0000 O   0  0  0  0  0  0  0  0  0  0  0  0
   -0.0000   -1.5000    0.0000 P   0  0  0  0  0  0  0  0  0  0  0  0
    0.7912   -1.5972    0.0000 O   0  0  0  0  0  0  0  0  0  0  0  0
   -0.0000    0.0000    0.0000 C   0  0  0  0  0  0  0  0  0  0  0  0
   -1.5000    0.0000    0.0000 F   0  0  0  0  0  0  0  0  0  0  0  0
    0.0000    1.5000    0.0000 F   0  0  0  0  0  0  0  0  0  0  0  0
    1.5000    0.0000    0.0000 C   0  0  0  0  0  0  0  0  0  0  0  0
    1.6080   -0.8791    0.0000 F   0  0  0  0  0  0  0  0  0  0  0  0
    1.3172    1.4888    0.0000 F   0  0  0  0  0  0  0  0  0  0  0  0
    3.0000   -0.0000    0.0000 O   0  0  0  0  0  0  0  0  0  0  0  0
    3.7500    1.2990    0.0000 C   0  0  0  0  0  0  0  0  0  0  0  0
    4.5000    2.5981    0.0000 F   0  0  0  0  0  0  0  0  0  0  0  0
    2.4510    2.0490    0.0000 C   0  0  0  0  0  0  0  0  0  0  0  0
    1.1519    2.7990    0.0000 F   0  0  0  0  0  0  0  0  0  0  0  0
    3.2010    3.3481    0.0000 F   0  0  0  0  0  0  0  0  0  0  0  0
    1.2852    1.1052    0.0000 F   0  0  0  0  0  0  0  0  0  0  0  0
    5.0490    0.5490    0.0000 C   0  0  0  0  0  0  0  0  0  0  0  0
    6.3481   -0.2010    0.0000 F   0  0  0  0  0  0  0  0  0  0  0  0
    5.7990    1.8481    0.0000 F   0  0  0  0  0  0  0  0  0  0  0  0
    4.2990   -0.7500    0.0000 F   0  0  0  0  0  0  0  0  0  0  0  0
   -0.0000   -3.0000    0.0000 C   0  0  0  0  0  0  0  0  0  0  0  0
    1.5000   -3.0000    0.0000 F   0  0  0  0  0  0  0  0  0  0  0  0
   -0.0000   -4.5000    0.0000 F   0  0  0  0  0  0  0  0  0  0  0  0
   -1.5000   -3.0000    0.0000 C   0  0  0  0  0  0  0  0  0  0  0  0
   -1.3172   -4.4888    0.0000 F   0  0  0  0  0  0  0  0  0  0  0  0
   -1.6828   -1.5112    0.0000 F   0  0  0  0  0  0  0  0  0  0  0  0
   -3.0000   -3.0000    0.0000 O   0  0  0  0  0  0  0  0  0  0  0  0
   -3.7500   -4.2990    0.0000 C   0  0  0  0  0  0  0  0  0  0  0  0
   -4.5000   -5.5981    0.0000 F   0  0  0  0  0  0  0  0  0  0  0  0
   -2.4510   -5.0490    0.0000 C   0  0  0  0  0  0  0  0  0  0  0  0
   -1.1519   -5.7990    0.0000 F   0  0  0  0  0  0  0  0  0  0  0  0
   -3.2010   -6.3481    0.0000 F   0  0  0  0  0  0  0  0  0  0  0  0
   -1.2852   -4.1052    0.0000 F   0  0  0  0  0  0  0  0  0  0  0  0
   -5.0490   -3.5490    0.0000 C   0  0  0  0  0  0  0  0  0  0  0  0
   -6.3481   -2.7990    0.0000 F   0  0  0  0  0  0  0  0  0  0  0  0
   -5.7990   -4.8481    0.0000 F   0  0  0  0  0  0  0  0  0  0  0  0
   -4.2990   -2.2500    0.0000 F   0  0  0  0  0  0  0  0  0  0  0  0
  1  2  2  0
  2  3  1  0
  2  4  1  0
  4  5  1  0
  4  6  1  0
  4  7  1  0
  7  8  1  0
  7  9  1  0
  7 10  1  0
 10 11  1  0
 11 12  1  0
 11 13  1  0
 13 14  1  0
 13 15  1  0
 13 16  1  0
 11 17  1  0
 17 18  1  0
 17 19  1  0
 17 20  1  0
  2 21  1  0
 21 22  1  0
 21 23  1  0
 21 24  1  0
 24 25  1  0
 24 26  1  0
 24 27  1  0
 27 28  1  0
 28 29  1  0
 28 30  1  0
 30 31  1  0
 30 32  1  0
 30 33  1  0
 28 34  1  0
 34 35  1  0
 34 36  1  0
 34 37  1  0
M  END
$$$$

     RDKit          2D

 39 37  0  0  0  0  0  0  0  0999 V2000
   18.1865   13.5000    0.0000 C   0  0  0  0  0  0  0  0  0  0  0  0
   16.8875   12.7500    0.0000 C   0  0  0  0  0  0  0  0  0  0  0  0
   15.5885   13.5000    0.0000 C   0  0  0  0  0  0  0  0  0  0  0  0
   14.2894   12.7500    0.0000 N   0  0  0  0  0  0  0  0  0  0  0  0
   15.0394   11.4510    0.0000 C   0  0  0  0  0  0  0  0  0  0  0  0
   13.5394   14.0490    0.0000 C   0  0  0  0  0  0  0  0  0  0  0  0
   12.9904   12.0000    0.0000 C   0  0  0  0  0  0  0  0  0  0  0  0
   12.9904   10.5000    0.0000 C   0  0  0  0  0  0  0  0  0  0  0  0
   11.6913    9.7500    0.0000 C   0  0  0  0  0  0  0  0  0  0  0  0
   11.6913    8.2500    0.0000 N   0  0  0  0  0  0  0  0  0  0  0  0
   10.3923    7.5000    0.0000 S   0  0  0  0  0  0  0  0  0  0  0  0
    9.6423    8.7990    0.0000 O   0  0  0  0  0  0  0  0  0  0  0  0
   10.8721    6.8634    0.0000 O   0  0  0  0  0  0  0  0  0  0  0  0
    9.0933    6.7500    0.0000 C   0  0  0  0  0  0  0  0  0  0  0  0
    8.3433    8.0490    0.0000 F   0  0  0  0  0  0  0  0  0  0  0  0
    7.7942    6.0000    0.0000 F   0  0  0  0  0  0  0  0  0  0  0  0
    9.8433    5.4510    0.0000 C   0  0  0  0  0  0  0  0  0  0  0  0
    8.5442    4.7010    0.0000 F   0  0  0  0  0  0  0  0  0  0  0  0
   10.6586    5.7970    0.0000 F   0  0  0  0  0  0  0  0  0  0  0  0
   10.5933    4.1519    0.0000 C   0  0  0  0  0  0  0  0  0  0  0  0
   11.8923    4.9019    0.0000 F   0  0  0  0  0  0  0  0  0  0  0  0
    9.2942    3.4019    0.0000 F   0  0  0  0  0  0  0  0  0  0  0  0
   11.3433    2.8529    0.0000 C   0  0  0  0  0  0  0  0  0  0  0  0
   10.0442    2.1029    0.0000 F   0  0  0  0  0  0  0  0  0  0  0  0
   12.6423    3.6029    0.0000 F   0  0  0  0  0  0  0  0  0  0  0  0
   12.0933    1.5538    0.0000 C   0  0  0  0  0  0  0  0  0  0  0  0
   10.7942    0.8038    0.0000 F   0  0  0  0  0  0  0  0  0  0  0  0
   13.3923    2.3038    0.0000 F   0  0  0  0  0  0  0  0  0  0  0  0
   12.8433    0.2548    0.0000 C   0  0  0  0  0  0  0  0  0  0  0  0
   14.1423    1.0048    0.0000 F   0  0  0  0  0  0  0  0  0  0  0  0
   11.5442   -0.4952    0.0000 F   0  0  0  0  0  0  0  0  0  0  0  0
   13.5933   -1.0442    0.0000 C   0  0  0  0  0  0  0  0  0  0  0  0
   12.2942   -1.7942    0.0000 F   0  0  0  0  0  0  0  0  0  0  0  0
   14.8923   -0.2942    0.0000 F   0  0  0  0  0  0  0  0  0  0  0  0
   14.3433   -2.3433    0.0000 C   0  0  0  0  0  0  0  0  0  0  0  0
   15.0933   -3.6423    0.0000 F   0  0  0  0  0  0  0  0  0  0  0  0
   15.6423   -1.5933    0.0000 F   0  0  0  0  0  0  0  0  0  0  0  0
   13.0442   -3.0933    0.0000 F   0  0  0  0  0  0  0  0  0  0  0  0
   19.1865    0.0000    0.0000 Br  0  0  0  0  0  0  0  0  0  0  0  0
  1  2  1  0
  2  3  1  0
  3  4  1  0
  4  5  1  0
  4  6  1  0
  4  7  1  0
  7  8  1  0
  8  9  1  0
  9 10  1  0
 10 11  1  0
 11 12  2  0
 11 13  2  0
 11 14  1  0
 14 15  1  0
 14 16  1  0
 14 17  1  0
 17 18  1  0
 17 19  1  0
 17 20  1  0
 20 21  1  0
 20 22  1  0
 20 23  1  0
 23 24  1  0
 23 25  1  0
 23 26  1  0
 26 27  1  0
 26 28  1  0
 26 29  1  0
 29 30  1  0
 29 31  1  0
 29 32  1  0
 32 33  1  0
 32 34  1  0
 32 35  1  0
 35 36  1  0
 35 37  1  0
 35 38  1  0
M  CHG  2   4   1  39  -1
M  END
$$$$

     RDKit          2D

 49 48  0  0  0  0  0  0  0  0999 V2000
   18.1865   19.6423    0.0000 C   0  0  0  0  0  0  0  0  0  0  0  0
   16.8875   18.8923    0.0000 C   0  0  0  0  0  0  0  0  0  0  0  0
   15.5885   19.6423    0.0000 C   0  0  0  0  0  0  0  0  0  0  0  0
   14.2894   18.8923    0.0000 N   0  0  0  0  0  0  0  0  0  0  0  0
   15.0394   17.5933    0.0000 C   0  0  0  0  0  0  0  0  0  0  0  0
   13.5394   20.1913    0.0000 C   0  0  0  0  0  0  0  0  0  0  0  0
   12.9904   18.1423    0.0000 C   0  0  0  0  0  0  0  0  0  0  0  0
   12.9904   16.6423    0.0000 C   0  0  0  0  0  0  0  0  0  0  0  0
   11.6913   15.8923    0.0000 C   0  0  0  0  0  0  0  0  0  0  0  0
   11.6913   14.3923    0.0000 N   0  0  0  0  0  0  0  0  0  0  0  0
   10.3923   13.6423    0.0000 S   0  0  0  0  0  0  0  0  0  0  0  0
    9.6423   14.9413    0.0000 O   0  0  0  0  0  0  0  0  0  0  0  0
   10.8721   13.0057    0.0000 O   0  0  0  0  0  0  0  0  0  0  0  0
    9.0933   12.8923    0.0000 C   0  0  0  0  0  0  0  0  0  0  0  0
    8.3433   14.1913    0.0000 F   0  0  0  0  0  0  0  0  0  0  0  0
    7.7942   12.1423    0.0000 F   0  0  0  0  0  0  0  0  0  0  0  0
    9.8433   11.5933    0.0000 C   0  0  0  0  0  0  0  0  0  0  0  0
    8.5442   10.8433    0.0000 F   0  0  0  0  0  0  0  0  0  0  0  0
   10.6586   11.9393    0.0000 F   0  0  0  0  0  0  0  0  0  0  0  0
   10.5933   10.2942    0.0000 C   0  0  0  0  0  0  0  0  0  0  0  0
   11.8923   11.0442    0.0000 F   0  0  0  0  0  0  0  0  0  0  0  0
    9.2942    9.5442    0.0000 F   0  0  0  0  0  0  0  0  0  0  0  0
   11.3433    8.9952    0.0000 C   0  0  0  0  0  0  0  0  0  0  0  0
   10.0442    8.2452    0.0000 F   0  0  0  0  0  0  0  0  0  0  0  0
   12.6423    9.7452    0.0000 F   0  0  0  0  0  0  0  0  0  0  0  0
   12.0933    7.6962    0.0000 C   0  0  0  0  0  0  0  0  0  0  0  0
   10.7942    6.9462    0.0000 F   0  0  0  0  0  0  0  0  0  0  0  0
   13.3923    8.4462    0.0000 F   0  0  0  0  0  0  0  0  0  0  0  0
   12.8433    6.3971    0.0000 C   0  0  0  0  0  0  0  0  0  0  0  0
   14.1423    7.1471    0.0000 F   0  0  0  0  0  0  0  0  0  0  0  0
   11.5442    5.6471    0.0000 F   0  0  0  0  0  0  0  0  0  0  0  0
   13.5933    5.0981    0.0000 C   0  0  0  0  0  0  0  0  0  0  0  0
   12.2942    4.3481    0.0000 F   0  0  0  0  0  0  0  0  0  0  0  0
   14.8923    5.8481    0.0000 F   0  0  0  0  0  0  0  0  0  0  0  0
   14.3433    3.7990    0.0000 C   0  0  0  0  0  0  0  0  0  0  0  0
   15.0933    2.5000    0.0000 F   0  0  0  0  0  0  0  0  0  0  0  0
   15.6423    4.5490    0.0000 F   0  0  0  0  0  0  0  0  0  0  0  0
   13.0442    3.0490    0.0000 F   0  0  0  0  0  0  0  0  0  0  0  0
    3.0000    0.0000    0.0000 C   0  0  0  0  0  0  0  0  0  0  0  0
    1.5000    0.0000    0.0000 C   0  0  0  0  0  0  0  0  0  0  0  0
    0.7500   -1.2990    0.0000 C   0  0  0  0  0  0  0  0  0  0  0  0
   -0.7500   -1.2990    0.0000 C   0  0  0  0  0  0  0  0  0  0  0  0
   -1.5000    0.0000    0.0000 C   0  0  0  0  0  0  0  0  0  0  0  0
   -3.0000    0.0000    0.0000 S   0  0  0  0  0  0  0  0  0  0  0  0
   -3.0000    1.5000    0.0000 O   0  0  0  0  0  0  0  0  0  0  0  0
   -3.0000   -1.5000    0.0000 O   0  0  0  0  0  0  0  0  0  0  0  0
   -4.5000    0.0000    0.0000 O   0  0  0  0  0  0  0  0  0  0  0  0
   -0.7500    1.2990    0.0000 C   0  0  0  0  0  0  0  0  0  0  0  0
    0.7500    1.2990    0.0000 C   0  0  0  0  0  0  0  0  0  0  0  0
  1  2  1  0
  2  3  1  0
  3  4  1  0
  4  5  1  0
  4  6  1  0
  4  7  1  0
  7  8  1  0
  8  9  1  0
  9 10  1  0
 10 11  1  0
 11 12  2  0
 11 13  2  0
 11 14  1  0
 14 15  1  0
 14 16  1  0
 14 17  1  0
 17 18  1  0
 17 19  1  0
 17 20  1  0
 20 21  1  0
 20 22  1  0
 20 23  1  0
 23 24  1  0
 23 25  1  0
 23 26  1  0
 26 27  1  0
 26 28  1  0
 26 29  1  0
 29 30  1  0
 29 31  1  0
 29 32  1  0
 32 33  1  0
 32 34  1  0
 32 35  1  0
 35 36  1  0
 35 37  1  0
 35 38  1  0
 39 40  1  0
 40 41  2  0
 41 42  1  0
 42 43  2  0
 43 44  1  0
 44 45  2  0
 44 46  2  0
 44 47  1  0
 43 48  1  0
 48 49  2  0
 49 40  1  0
M  CHG  2   4   1  47  -1
M  END
$$$$

     RDKit          2D

178174  0  0  0  0  0  0  0  0999 V2000
   -1.4888   -1.3172    0.0000 O   0  0  0  0  0  0  0  0  0  0  0  0
   -0.0000   -1.5000    0.0000 P   0  0  0  0  0  0  0  0  0  0  0  0
    0.7912   -1.5972    0.0000 S   0  0  0  0  0  0  0  0  0  0  0  0
   -0.0000    0.0000    0.0000 C   0  0  0  0  0  0  0  0  0  0  0  0
   -1.5000    0.0000    0.0000 F   0  0  0  0  0  0  0  0  0  0  0  0
    0.0000    1.5000    0.0000 F   0  0  0  0  0  0  0  0  0  0  0  0
    1.5000    0.0000    0.0000 C   0  0  0  0  0  0  0  0  0  0  0  0
    1.5000    1.5000    0.0000 F   0  0  0  0  0  0  0  0  0  0  0  0
    1.6080   -0.8791    0.0000 F   0  0  0  0  0  0  0  0  0  0  0  0
    3.0000   -0.0000    0.0000 C   0  0  0  0  0  0  0  0  0  0  0  0
    3.0000   -1.5000    0.0000 F   0  0  0  0  0  0  0  0  0  0  0  0
    3.0000    1.5000    0.0000 F   0  0  0  0  0  0  0  0  0  0  0  0
    4.5000   -0.0000    0.0000 C   0  0  0  0  0  0  0  0  0  0  0  0
    4.5000    1.5000    0.0000 F   0  0  0  0  0  0  0  0  0  0  0  0
    4.5000   -1.5000    0.0000 F   0  0  0  0  0  0  0  0  0  0  0  0
    6.0000   -0.0000    0.0000 C   0  0  0  0  0  0  0  0  0  0  0  0
    6.0000   -1.5000    0.0000 F   0  0  0  0  0  0  0  0  0  0  0  0
    6.0000    1.5000    0.0000 F   0  0  0  0  0  0  0  0  0  0  0  0
    7.5000   -0.0000    0.0000 C   0  0  0  0  0  0  0  0  0  0  0  0
    7.3172    1.4888    0.0000 F   0  0  0  0  0  0  0  0  0  0  0  0
    7.5000   -1.5000    0.0000 F   0  0  0  0  0  0  0  0  0  0  0  0
    9.0000   -0.0000    0.0000 C   0  0  0  0  0  0  0  0  0  0  0  0
    9.0000   -1.5000    0.0000 F   0  0  0  0  0  0  0  0  0  0  0  0
   10.5000   -0.0000    0.0000 C   0  0  0  0  0  0  0  0  0  0  0  0
   12.0000   -0.0000    0.0000 F   0  0  0  0  0  0  0  0  0  0  0  0
   10.5000   -1.5000    0.0000 F   0  0  0  0  0  0  0  0  0  0  0  0
   10.6828    1.4888    0.0000 F   0  0  0  0  0  0  0  0  0  0  0  0
    9.0000    1.5000    0.0000 C   0  0  0  0  0  0  0  0  0  0  0  0
    9.0000    3.0000    0.0000 F   0  0  0  0  0  0  0  0  0  0  0  0
   10.4888    1.6828    0.0000 F   0  0  0  0  0  0  0  0  0  0  0  0
    7.5112    1.6828    0.0000 F   0  0  0  0  0  0  0  0  0  0  0  0
   -0.0000   -3.0000    0.0000 C   0  0  0  0  0  0  0  0  0  0  0  0
    1.5000   -3.0000    0.0000 F   0  0  0  0  0  0  0  0  0  0  0  0
   -0.0000   -4.5000    0.0000 F   0  0  0  0  0  0  0  0  0  0  0  0
   -1.5000   -3.0000    0.0000 C   0  0  0  0  0  0  0  0  0  0  0  0
   -1.6828   -1.5112    0.0000 F   0  0  0  0  0  0  0  0  0  0  0  0
   -1.5000   -4.5000    0.0000 F   0  0  0  0  0  0  0  0  0  0  0  0
   -3.0000   -3.0000    0.0000 C   0  0  0  0  0  0  0  0  0  0  0  0
   -3.0000   -1.5000    0.0000 F   0  0  0  0  0  0  0  0  0  0  0  0
   -3.0000   -4.5000    0.0000 F   0  0  0  0  0  0  0  0  0  0  0  0
   -4.5000   -3.0000    0.0000 C   0  0  0  0  0  0  0  0  0  0  0  0
   -4.5000   -4.5000    0.0000 F   0  0  0  0  0  0  0  0  0  0  0  0
   -4.5000   -1.5000    0.0000 F   0  0  0  0  0  0  0  0  0  0  0  0
   -6.0000   -3.0000    0.0000 C   0  0  0  0  0  0  0  0  0  0  0  0
   -6.0000   -1.5000    0.0000 F   0  0  0  0  0  0  0  0  0  0  0  0
   -6.0000   -4.5000    0.0000 F   0  0  0  0  0  0  0  0  0  0  0  0
   -7.5000   -3.0000    0.0000 C   0  0  0  0  0  0  0  0  0  0  0  0
   -7.3172   -4.4888    0.0000 F   0  0  0  0  0  0  0  0  0  0  0  0
   -7.5000   -1.5000    0.0000 F   0  0  0  0  0  0  0  0  0  0  0  0
   -9.0000   -3.0000    0.0000 C   0  0  0  0  0  0  0  0  0  0  0  0
   -9.0000   -1.5000    0.0000 F   0  0  0  0  0  0  0  0  0  0  0  0
  -10.5000   -3.0000    0.0000 C   0  0  0  0  0  0  0  0  0  0  0  0
  -12.0000   -3.0000    0.0000 F   0  0  0  0  0  0  0  0  0  0  0  0
  -10.5000   -1.5000    0.0000 F   0  0  0  0  0  0  0  0  0  0  0  0
  -10.6828   -4.4888    0.0000 F   0  0  0  0  0  0  0  0  0  0  0  0
   -9.0000   -4.5000    0.0000 C   0  0  0  0  0  0  0  0  0  0  0  0
   -9.0000   -6.0000    0.0000 F   0  0  0  0  0  0  0  0  0  0  0  0
  -10.4888   -4.6828    0.0000 F   0  0  0  0  0  0  0  0  0  0  0  0
   -7.5112   -4.6828    0.0000 F   0  0  0  0  0  0  0  0  0  0  0  0
   -1.4888    8.6828    0.0000 O   0  0  0  0  0  0  0  0  0  0  0  0
   -0.0000    8.5000    0.0000 P   0  0  0  0  0  0  0  0  0  0  0  0
    0.7912    8.4028    0.0000 S   0  0  0  0  0  0  0  0  0  0  0  0
   -0.0000   10.0000    0.0000 C   0  0  0  0  0  0  0  0  0  0  0  0
   -1.5000   10.0000    0.0000 F   0  0  0  0  0  0  0  0  0  0  0  0
    0.0000   11.5000    0.0000 F   0  0  0  0  0  0  0  0  0  0  0  0
    1.5000   10.0000    0.0000 C   0  0  0  0  0  0  0  0  0  0  0  0
    1.5000   11.5000    0.0000 F   0  0  0  0  0  0  0  0  0  0  0  0
    1.6080    9.1209    0.0000 F   0  0  0  0  0  0  0  0  0  0  0  0
    3.0000   10.0000    0.0000 C   0  0  0  0  0  0  0  0  0  0  0  0
    3.0000    8.5000    0.0000 F   0  0  0  0  0  0  0  0  0  0  0  0
    3.0000   11.5000    0.0000 F   0  0  0  0  0  0  0  0  0  0  0  0
    4.5000   10.0000    0.0000 C   0  0  0  0  0  0  0  0  0  0  0  0
    4.5000   11.5000    0.0000 F   0  0  0  0  0  0  0  0  0  0  0  0
    4.5000    8.5000    0.0000 F   0  0  0  0  0  0  0  0  0  0  0  0
    6.0000   10.0000    0.0000 C   0  0  0  0  0  0  0  0  0  0  0  0
    6.0000    8.5000    0.0000 F   0  0  0  0  0  0  0  0  0  0  0  0
    6.0000   11.5000    0.0000 F   0  0  0  0  0  0  0  0  0  0  0  0
    7.5000   10.0000    0.0000 C   0  0  0  0  0  0  0  0  0  0  0  0
    7.3172   11.4888    0.0000 F   0  0  0  0  0  0  0  0  0  0  0  0
    7.5000    8.5000    0.0000 F   0  0  0  0  0  0  0  0  0  0  0  0
    9.0000   10.0000    0.0000 C   0  0  0  0  0  0  0  0  0  0  0  0
    9.0000    8.5000    0.0000 F   0  0  0  0  0  0  0  0  0  0  0  0
   10.5000   10.0000    0.0000 C   0  0  0  0  0  0  0  0  0  0  0  0
   12.0000   10.0000    0.0000 F   0  0  0  0  0  0  0  0  0  0  0  0
   10.5000    8.5000    0.0000 F   0  0  0  0  0  0  0  0  0  0  0  0
   10.6828   11.4888    0.0000 F   0  0  0  0  0  0  0  0  0  0  0  0
    9.0000   11.5000    0.0000 C   0  0  0  0  0  0  0  0  0  0  0  0
    9.0000   13.0000    0.0000 F   0  0  0  0  0  0  0  0  0  0  0  0
   10.4888   11.6828    0.0000 F   0  0  0  0  0  0  0  0  0  0  0  0
    7.5112   11.6828    0.0000 F   0  0  0  0  0  0  0  0  0  0  0  0
   -0.0000    7.0000    0.0000 C   0  0  0  0  0  0  0  0  0  0  0  0
    1.5000    7.0000    0.0000 F   0  0  0  0  0  0  0  0  0  0  0  0
   -0.0000    5.5000    0.0000 F   0  0  0  0  0  0  0  0  0  0  0  0
   -1.5000    7.0000    0.0000 C   0  0  0  0  0  0  0  0  0  0  0  0
   -1.6828    8.4888    0.0000 F   0  0  0  0  0  0  0  0  0  0  0  0
   -1.5000    5.5000    0.0000 F   0  0  0  0  0  0  0  0  0  0  0  0
   -3.0000    7.0000    0.0000 C   0  0  0  0  0  0  0  0  0  0  0  0
   -3.0000    8.5000    0.0000 F   0  0  0  0  0  0  0  0  0  0  0  0
   -3.0000    5.5000    0.0000 F   0  0  0  0  0  0  0  0  0  0  0  0
   -4.5000    7.0000    0.0000 C   0  0  0  0  0  0  0  0  0  0  0  0
   -4.5000    5.5000    0.0000 F   0  0  0  0  0  0  0  0  0  0  0  0
   -4.5000    8.5000    0.0000 F   0  0  0  0  0  0  0  0  0  0  0  0
   -6.0000    7.0000    0.0000 C   0  0  0  0  0  0  0  0  0  0  0  0
   -6.0000    8.5000    0.0000 F   0  0  0  0  0  0  0  0  0  0  0  0
   -6.0000    5.5000    0.0000 F   0  0  0  0  0  0  0  0  0  0  0  0
   -7.5000    7.0000    0.0000 C   0  0  0  0  0  0  0  0  0  0  0  0
   -7.3172    5.5112    0.0000 F   0  0  0  0  0  0  0  0  0  0  0  0
   -7.5000    8.5000    0.0000 F   0  0  0  0  0  0  0  0  0  0  0  0
   -9.0000    7.0000    0.0000 C   0  0  0  0  0  0  0  0  0  0  0  0
   -9.0000    8.5000    0.0000 F   0  0  0  0  0  0  0  0  0  0  0  0
  -10.5000    7.0000    0.0000 C   0  0  0  0  0  0  0  0  0  0  0  0
  -12.0000    7.0000    0.0000 F   0  0  0  0  0  0  0  0  0  0  0  0
  -10.5000    8.5000    0.0000 F   0  0  0  0  0  0  0  0  0  0  0  0
  -10.6828    5.5112    0.0000 F   0  0  0  0  0  0  0  0  0  0  0  0
   -9.0000    5.5000    0.0000 C   0  0  0  0  0  0  0  0  0  0  0  0
   -9.0000    4.0000    0.0000 F   0  0  0  0  0  0  0  0  0  0  0  0
  -10.4888    5.3172    0.0000 F   0  0  0  0  0  0  0  0  0  0  0  0
   -7.5112    5.3172    0.0000 F   0  0  0  0  0  0  0  0  0  0  0  0
   -1.4888   18.6828    0.0000 O   0  0  0  0  0  0  0  0  0  0  0  0
   -0.0000   18.5000    0.0000 P   0  0  0  0  0  0  0  0  0  0  0  0
    0.7912   18.4028    0.0000 S   0  0  0  0  0  0  0  0  0  0  0  0
   -0.0000   20.0000    0.0000 C   0  0  0  0  0  0  0  0  0  0  0  0
   -1.5000   20.0000    0.0000 F   0  0  0  0  0  0  0  0  0  0  0  0
    0.0000   21.5000    0.0000 F   0  0  0  0  0  0  0  0  0  0  0  0
    1.5000   20.0000    0.0000 C   0  0  0  0  0  0  0  0  0  0  0  0
    1.5000   21.5000    0.0000 F   0  0  0  0  0  0  0  0  0  0  0  0
    1.6080   19.1209    0.0000 F   0  0  0  0  0  0  0  0  0  0  0  0
    3.0000   20.0000    0.0000 C   0  0  0  0  0  0  0  0  0  0  0  0
    3.0000   18.5000    0.0000 F   0  0  0  0  0  0  0  0  0  0  0  0
    3.0000   21.5000    0.0000 F   0  0  0  0  0  0  0  0  0  0  0  0
    4.5000   20.0000    0.0000 C   0  0  0  0  0  0  0  0  0  0  0  0
    4.5000   21.5000    0.0000 F   0  0  0  0  0  0  0  0  0  0  0  0
    4.5000   18.5000    0.0000 F   0  0  0  0  0  0  0  0  0  0  0  0
    6.0000   20.0000    0.0000 C   0  0  0  0  0  0  0  0  0  0  0  0
    6.0000   18.5000    0.0000 F   0  0  0  0  0  0  0  0  0  0  0  0
    6.0000   21.5000    0.0000 F   0  0  0  0  0  0  0  0  0  0  0  0
    7.5000   20.0000    0.0000 C   0  0  0  0  0  0  0  0  0  0  0  0
    7.3172   21.4888    0.0000 F   0  0  0  0  0  0  0  0  0  0  0  0
    7.5000   18.5000    0.0000 F   0  0  0  0  0  0  0  0  0  0  0  0
    9.0000   20.0000    0.0000 C   0  0  0  0  0  0  0  0  0  0  0  0
    9.0000   18.5000    0.0000 F   0  0  0  0  0  0  0  0  0  0  0  0
   10.5000   20.0000    0.0000 C   0  0  0  0  0  0  0  0  0  0  0  0
   12.0000   20.0000    0.0000 F   0  0  0  0  0  0  0  0  0  0  0  0
   10.5000   18.5000    0.0000 F   0  0  0  0  0  0  0  0  0  0  0  0
   10.6828   21.4888    0.0000 F   0  0  0  0  0  0  0  0  0  0  0  0
    9.0000   21.5000    0.0000 C   0  0  0  0  0  0  0  0  0  0  0  0
    9.0000   23.0000    0.0000 F   0  0  0  0  0  0  0  0  0  0  0  0
   10.4888   21.6828    0.0000 F   0  0  0  0  0  0  0  0  0  0  0  0
    7.5112   21.6828    0.0000 F   0  0  0  0  0  0  0  0  0  0  0  0
   -0.0000   17.0000    0.0000 C   0  0  0  0  0  0  0  0  0  0  0  0
    1.5000   17.0000    0.0000 F   0  0  0  0  0  0  0  0  0  0  0  0
   -0.0000   15.5000    0.0000 F   0  0  0  0  0  0  0  0  0  0  0  0
   -1.5000   17.0000    0.0000 C   0  0  0  0  0  0  0  0  0  0  0  0
   -1.6828   18.4888    0.0000 F   0  0  0  0  0  0  0  0  0  0  0  0
   -1.5000   15.5000    0.0000 F   0  0  0  0  0  0  0  0  0  0  0  0
   -3.0000   17.0000    0.0000 C   0  0  0  0  0  0  0  0  0  0  0  0
   -3.0000   18.5000    0.0000 F   0  0  0  0  0  0  0  0  0  0  0  0
   -3.0000   15.5000    0.0000 F   0  0  0  0  0  0  0  0  0  0  0  0
   -4.5000   17.0000    0.0000 C   0  0  0  0  0  0  0  0  0  0  0  0
   -4.5000   15.5000    0.0000 F   0  0  0  0  0  0  0  0  0  0  0  0
   -4.5000   18.5000    0.0000 F   0  0  0  0  0  0  0  0  0  0  0  0
   -6.0000   17.0000    0.0000 C   0  0  0  0  0  0  0  0  0  0  0  0
   -6.0000   18.5000    0.0000 F   0  0  0  0  0  0  0  0  0  0  0  0
   -6.0000   15.5000    0.0000 F   0  0  0  0  0  0  0  0  0  0  0  0
   -7.5000   17.0000    0.0000 C   0  0  0  0  0  0  0  0  0  0  0  0
   -7.3172   15.5112    0.0000 F   0  0  0  0  0  0  0  0  0  0  0  0
   -7.5000   18.5000    0.0000 F   0  0  0  0  0  0  0  0  0  0  0  0
   -9.0000   17.0000    0.0000 C   0  0  0  0  0  0  0  0  0  0  0  0
   -9.0000   18.5000    0.0000 F   0  0  0  0  0  0  0  0  0  0  0  0
  -10.5000   17.0000    0.0000 C   0  0  0  0  0  0  0  0  0  0  0  0
  -12.0000   17.0000    0.0000 F   0  0  0  0  0  0  0  0  0  0  0  0
  -10.5000   18.5000    0.0000 F   0  0  0  0  0  0  0  0  0  0  0  0
  -10.6828   15.5112    0.0000 F   0  0  0  0  0  0  0  0  0  0  0  0
   -9.0000   15.5000    0.0000 C   0  0  0  0  0  0  0  0  0  0  0  0
   -9.0000   14.0000    0.0000 F   0  0  0  0  0  0  0  0  0  0  0  0
  -10.4888   15.3172    0.0000 F   0  0  0  0  0  0  0  0  0  0  0  0
   -7.5112   15.3172    0.0000 F   0  0  0  0  0  0  0  0  0  0  0  0
   13.0000    0.0000    0.0000 Yb  0  0  0  0  0 15  0  0  0  0  0  0
  1  2  1  0
  2  3  2  0
  2  4  1  0
  4  5  1  0
  4  6  1  0
  4  7  1  0
  7  8  1  0
  7  9  1  0
  7 10  1  0
 10 11  1  0
 10 12  1  0
 10 13  1  0
 13 14  1  0
 13 15  1  0
 13 16  1  0
 16 17  1  0
 16 18  1  0
 16 19  1  0
 19 20  1  0
 19 21  1  0
 19 22  1  0
 22 23  1  0
 22 24  1  0
 24 25  1  0
 24 26  1  0
 24 27  1  0
 22 28  1  0
 28 29  1  0
 28 30  1  0
 28 31  1  0
  2 32  1  0
 32 33  1  0
 32 34  1  0
 32 35  1  0
 35 36  1  0
 35 37  1  0
 35 38  1  0
 38 39  1  0
 38 40  1  0
 38 41  1  0
 41 42  1  0
 41 43  1  0
 41 44  1  0
 44 45  1  0
 44 46  1  0
 44 47  1  0
 47 48  1  0
 47 49  1  0
 47 50  1  0
 50 51  1  0
 50 52  1  0
 52 53  1  0
 52 54  1  0
 52 55  1  0
 50 56  1  0
 56 57  1  0
 56 58  1  0
 56 59  1  0
 60 61  1  0
 61 62  2  0
 61 63  1  0
 63 64  1  0
 63 65  1  0
 63 66  1  0
 66 67  1  0
 66 68  1  0
 66 69  1  0
 69 70  1  0
 69 71  1  0
 69 72  1  0
 72 73  1  0
 72 74  1  0
 72 75  1  0
 75 76  1  0
 75 77  1  0
 75 78  1  0
 78 79  1  0
 78 80  1  0
 78 81  1  0
 81 82  1  0
 81 83  1  0
 83 84  1  0
 83 85  1  0
 83 86  1  0
 81 87  1  0
 87 88  1  0
 87 89  1  0
 87 90  1  0
 61 91  1  0
 91 92  1  0
 91 93  1  0
 91 94  1  0
 94 95  1  0
 94 96  1  0
 94 97  1  0
 97 98  1  0
 97 99  1  0
 97100  1  0
100101  1  0
100102  1  0
100103  1  0
103104  1  0
103105  1  0
103106  1  0
106107  1  0
106108  1  0
106109  1  0
109110  1  0
109111  1  0
111112  1  0
111113  1  0
111114  1  0
109115  1  0
115116  1  0
115117  1  0
115118  1  0
119120  1  0
120121  2  0
120122  1  0
122123  1  0
122124  1  0
122125  1  0
125126  1  0
125127  1  0
125128  1  0
128129  1  0
128130  1  0
128131  1  0
131132  1  0
131133  1  0
131134  1  0
134135  1  0
134136  1  0
134137  1  0
137138  1  0
137139  1  0
137140  1  0
140141  1  0
140142  1  0
142143  1  0
142144  1  0
142145  1  0
140146  1  0
146147  1  0
146148  1  0
146149  1  0
120150  1  0
150151  1  0
150152  1  0
150153  1  0
153154  1  0
153155  1  0
153156  1  0
156157  1  0
156158  1  0
156159  1  0
159160  1  0
159161  1  0
159162  1  0
162163  1  0
162164  1  0
162165  1  0
165166  1  0
165167  1  0
165168  1  0
168169  1  0
168170  1  0
170171  1  0
170172  1  0
170173  1  0
168174  1  0
174175  1  0
174176  1  0
174177  1  0
M  CHG  4   1  -1  60  -1 119  -1 178   3
M  END
$$$$

     RDKit          2D

178174  0  0  0  0  0  0  0  0999 V2000
    0.7912   -1.5972    0.0000 O   0  0  0  0  0  0  0  0  0  0  0  0
   -0.0000   -1.5000    0.0000 P   0  0  0  0  0  0  0  0  0  0  0  0
   -1.4888   -1.3172    0.0000 O   0  0  0  0  0  0  0  0  0  0  0  0
   -0.0000    0.0000    0.0000 C   0  0  0  0  0  0  0  0  0  0  0  0
   -1.5000    0.0000    0.0000 F   0  0  0  0  0  0  0  0  0  0  0  0
    0.0000    1.5000    0.0000 F   0  0  0  0  0  0  0  0  0  0  0  0
    1.5000    0.0000    0.0000 C   0  0  0  0  0  0  0  0  0  0  0  0
    1.5000    1.5000    0.0000 F   0  0  0  0  0  0  0  0  0  0  0  0
    1.6080   -0.8791    0.0000 F   0  0  0  0  0  0  0  0  0  0  0  0
    3.0000   -0.0000    0.0000 C   0  0  0  0  0  0  0  0  0  0  0  0
    3.0000   -1.5000    0.0000 F   0  0  0  0  0  0  0  0  0  0  0  0
    3.0000    1.5000    0.0000 F   0  0  0  0  0  0  0  0  0  0  0  0
    4.5000   -0.0000    0.0000 C   0  0  0  0  0  0  0  0  0  0  0  0
    4.5000    1.5000    0.0000 F   0  0  0  0  0  0  0  0  0  0  0  0
    4.5000   -1.5000    0.0000 F   0  0  0  0  0  0  0  0  0  0  0  0
    6.0000   -0.0000    0.0000 C   0  0  0  0  0  0  0  0  0  0  0  0
    6.0000    1.5000    0.0000 F   0  0  0  0  0  0  0  0  0  0  0  0
    6.0000   -1.5000    0.0000 F   0  0  0  0  0  0  0  0  0  0  0  0
    7.5000   -0.0000    0.0000 C   0  0  0  0  0  0  0  0  0  0  0  0
    7.5000   -1.5000    0.0000 F   0  0  0  0  0  0  0  0  0  0  0  0
    7.5000    1.5000    0.0000 F   0  0  0  0  0  0  0  0  0  0  0  0
    9.0000   -0.0000    0.0000 C   0  0  0  0  0  0  0  0  0  0  0  0
    9.0000    1.5000    0.0000 F   0  0  0  0  0  0  0  0  0  0  0  0
    9.0000   -1.5000    0.0000 F   0  0  0  0  0  0  0  0  0  0  0  0
   10.5000   -0.0000    0.0000 C   0  0  0  0  0  0  0  0  0  0  0  0
   12.0000   -0.0000    0.0000 F   0  0  0  0  0  0  0  0  0  0  0  0
   10.5000   -1.5000    0.0000 F   0  0  0  0  0  0  0  0  0  0  0  0
   10.5000    1.5000    0.0000 F   0  0  0  0  0  0  0  0  0  0  0  0
   -0.0000   -3.0000    0.0000 C   0  0  0  0  0  0  0  0  0  0  0  0
    1.5000   -3.0000    0.0000 F   0  0  0  0  0  0  0  0  0  0  0  0
   -0.0000   -4.5000    0.0000 F   0  0  0  0  0  0  0  0  0  0  0  0
   -1.5000   -3.0000    0.0000 C   0  0  0  0  0  0  0  0  0  0  0  0
   -1.6828   -1.5112    0.0000 F   0  0  0  0  0  0  0  0  0  0  0  0
   -1.5000   -4.5000    0.0000 F   0  0  0  0  0  0  0  0  0  0  0  0
   -3.0000   -3.0000    0.0000 C   0  0  0  0  0  0  0  0  0  0  0  0
   -3.0000   -1.5000    0.0000 F   0  0  0  0  0  0  0  0  0  0  0  0
   -3.0000   -4.5000    0.0000 F   0  0  0  0  0  0  0  0  0  0  0  0
   -4.5000   -3.0000    0.0000 C   0  0  0  0  0  0  0  0  0  0  0  0
   -4.5000   -4.5000    0.0000 F   0  0  0  0  0  0  0  0  0  0  0  0
   -4.5000   -1.5000    0.0000 F   0  0  0  0  0  0  0  0  0  0  0  0
   -6.0000   -3.0000    0.0000 C   0  0  0  0  0  0  0  0  0  0  0  0
   -6.0000   -1.5000    0.0000 F   0  0  0  0  0  0  0  0  0  0  0  0
   -6.0000   -4.5000    0.0000 F   0  0  0  0  0  0  0  0  0  0  0  0
   -7.5000   -3.0000    0.0000 C   0  0  0  0  0  0  0  0  0  0  0  0
   -7.5000   -1.5000    0.0000 F   0  0  0  0  0  0  0  0  0  0  0  0
   -7.5000   -4.5000    0.0000 F   0  0  0  0  0  0  0  0  0  0  0  0
   -9.0000   -3.0000    0.0000 C   0  0  0  0  0  0  0  0  0  0  0  0
   -9.0000   -4.5000    0.0000 F   0  0  0  0  0  0  0  0  0  0  0  0
   -9.0000   -1.5000    0.0000 F   0  0  0  0  0  0  0  0  0  0  0  0
  -10.5000   -3.0000    0.0000 C   0  0  0  0  0  0  0  0  0  0  0  0
  -10.5000   -1.5000    0.0000 F   0  0  0  0  0  0  0  0  0  0  0  0
  -10.5000   -4.5000    0.0000 F   0  0  0  0  0  0  0  0  0  0  0  0
  -12.0000   -3.0000    0.0000 C   0  0  0  0  0  0  0  0  0  0  0  0
  -12.0000   -4.5000    0.0000 F   0  0  0  0  0  0  0  0  0  0  0  0
  -12.0000   -1.5000    0.0000 F   0  0  0  0  0  0  0  0  0  0  0  0
  -13.5000   -3.0000    0.0000 C   0  0  0  0  0  0  0  0  0  0  0  0
  -15.0000   -3.0000    0.0000 F   0  0  0  0  0  0  0  0  0  0  0  0
  -13.5000   -1.5000    0.0000 F   0  0  0  0  0  0  0  0  0  0  0  0
  -13.5000   -4.5000    0.0000 F   0  0  0  0  0  0  0  0  0  0  0  0
    0.7912    5.4028    0.0000 O   0  0  0  0  0  0  0  0  0  0  0  0
   -0.0000    5.5000    0.0000 P   0  0  0  0  0  0  0  0  0  0  0  0
   -1.4888    5.6828    0.0000 O   0  0  0  0  0  0  0  0  0  0  0  0
   -0.0000    7.0000    0.0000 C   0  0  0  0  0  0  0  0  0  0  0  0
   -1.5000    7.0000    0.0000 F   0  0  0  0  0  0  0  0  0  0  0  0
    0.0000    8.5000    0.0000 F   0  0  0  0  0  0  0  0  0  0  0  0
    1.5000    7.0000    0.0000 C   0  0  0  0  0  0  0  0  0  0  0  0
    1.5000    8.5000    0.0000 F   0  0  0  0  0  0  0  0  0  0  0  0
    1.6080    6.1209    0.0000 F   0  0  0  0  0  0  0  0  0  0  0  0
    3.0000    7.0000    0.0000 C   0  0  0  0  0  0  0  0  0  0  0  0
    3.0000    5.5000    0.0000 F   0  0  0  0  0  0  0  0  0  0  0  0
    3.0000    8.5000    0.0000 F   0  0  0  0  0  0  0  0  0  0  0  0
    4.5000    7.0000    0.0000 C   0  0  0  0  0  0  0  0  0  0  0  0
    4.5000    8.5000    0.0000 F   0  0  0  0  0  0  0  0  0  0  0  0
    4.5000    5.5000    0.0000 F   0  0  0  0  0  0  0  0  0  0  0  0
    6.0000    7.0000    0.0000 C   0  0  0  0  0  0  0  0  0  0  0  0
    6.0000    8.5000    0.0000 F   0  0  0  0  0  0  0  0  0  0  0  0
    6.0000    5.5000    0.0000 F   0  0  0  0  0  0  0  0  0  0  0  0
    7.5000    7.0000    0.0000 C   0  0  0  0  0  0  0  0  0  0  0  0
    7.5000    5.5000    0.0000 F   0  0  0  0  0  0  0  0  0  0  0  0
    7.5000    8.5000    0.0000 F   0  0  0  0  0  0  0  0  0  0  0  0
    9.0000    7.0000    0.0000 C   0  0  0  0  0  0  0  0  0  0  0  0
    9.0000    8.5000    0.0000 F   0  0  0  0  0  0  0  0  0  0  0  0
    9.0000    5.5000    0.0000 F   0  0  0  0  0  0  0  0  0  0  0  0
   10.5000    7.0000    0.0000 C   0  0  0  0  0  0  0  0  0  0  0  0
   12.0000    7.0000    0.0000 F   0  0  0  0  0  0  0  0  0  0  0  0
   10.5000    5.5000    0.0000 F   0  0  0  0  0  0  0  0  0  0  0  0
   10.5000    8.5000    0.0000 F   0  0  0  0  0  0  0  0  0  0  0  0
   -0.0000    4.0000    0.0000 C   0  0  0  0  0  0  0  0  0  0  0  0
    1.5000    4.0000    0.0000 F   0  0  0  0  0  0  0  0  0  0  0  0
   -0.0000    2.5000    0.0000 F   0  0  0  0  0  0  0  0  0  0  0  0
   -1.5000    4.0000    0.0000 C   0  0  0  0  0  0  0  0  0  0  0  0
   -1.6828    5.4888    0.0000 F   0  0  0  0  0  0  0  0  0  0  0  0
   -1.5000    2.5000    0.0000 F   0  0  0  0  0  0  0  0  0  0  0  0
   -3.0000    4.0000    0.0000 C   0  0  0  0  0  0  0  0  0  0  0  0
   -3.0000    5.5000    0.0000 F   0  0  0  0  0  0  0  0  0  0  0  0
   -3.0000    2.5000    0.0000 F   0  0  0  0  0  0  0  0  0  0  0  0
   -4.5000    4.0000    0.0000 C   0  0  0  0  0  0  0  0  0  0  0  0
   -4.5000    2.5000    0.0000 F   0  0  0  0  0  0  0  0  0  0  0  0
   -4.5000    5.5000    0.0000 F   0  0  0  0  0  0  0  0  0  0  0  0
   -6.0000    4.0000    0.0000 C   0  0  0  0  0  0  0  0  0  0  0  0
   -6.0000    5.5000    0.0000 F   0  0  0  0  0  0  0  0  0  0  0  0
   -6.0000    2.5000    0.0000 F   0  0  0  0  0  0  0  0  0  0  0  0
   -7.5000    4.0000    0.0000 C   0  0  0  0  0  0  0  0  0  0  0  0
   -7.5000    5.5000    0.0000 F   0  0  0  0  0  0  0  0  0  0  0  0
   -7.5000    2.5000    0.0000 F   0  0  0  0  0  0  0  0  0  0  0  0
   -9.0000    4.0000    0.0000 C   0  0  0  0  0  0  0  0  0  0  0  0
   -9.0000    2.5000    0.0000 F   0  0  0  0  0  0  0  0  0  0  0  0
   -9.0000    5.5000    0.0000 F   0  0  0  0  0  0  0  0  0  0  0  0
  -10.5000    4.0000    0.0000 C   0  0  0  0  0  0  0  0  0  0  0  0
  -10.5000    5.5000    0.0000 F   0  0  0  0  0  0  0  0  0  0  0  0
  -10.5000    2.5000    0.0000 F   0  0  0  0  0  0  0  0  0  0  0  0
  -12.0000    4.0000    0.0000 C   0  0  0  0  0  0  0  0  0  0  0  0
  -12.0000    2.5000    0.0000 F   0  0  0  0  0  0  0  0  0  0  0  0
  -12.0000    5.5000    0.0000 F   0  0  0  0  0  0  0  0  0  0  0  0
  -13.5000    4.0000    0.0000 C   0  0  0  0  0  0  0  0  0  0  0  0
  -15.0000    4.0000    0.0000 F   0  0  0  0  0  0  0  0  0  0  0  0
  -13.5000    5.5000    0.0000 F   0  0  0  0  0  0  0  0  0  0  0  0
  -13.5000    2.5000    0.0000 F   0  0  0  0  0  0  0  0  0  0  0  0
    0.7912   12.4028    0.0000 O   0  0  0  0  0  0  0  0  0  0  0  0
   -0.0000   12.5000    0.0000 P   0  0  0  0  0  0  0  0  0  0  0  0
   -1.4888   12.6828    0.0000 O   0  0  0  0  0  0  0  0  0  0  0  0
   -0.0000   14.0000    0.0000 C   0  0  0  0  0  0  0  0  0  0  0  0
   -1.5000   14.0000    0.0000 F   0  0  0  0  0  0  0  0  0  0  0  0
    0.0000   15.5000    0.0000 F   0  0  0  0  0  0  0  0  0  0  0  0
    1.5000   14.0000    0.0000 C   0  0  0  0  0  0  0  0  0  0  0  0
    1.5000   15.5000    0.0000 F   0  0  0  0  0  0  0  0  0  0  0  0
    1.6080   13.1209    0.0000 F   0  0  0  0  0  0  0  0  0  0  0  0
    3.0000   14.0000    0.0000 C   0  0  0  0  0  0  0  0  0  0  0  0
    3.0000   12.5000    0.0000 F   0  0  0  0  0  0  0  0  0  0  0  0
    3.0000   15.5000    0.0000 F   0  0  0  0  0  0  0  0  0  0  0  0
    4.5000   14.0000    0.0000 C   0  0  0  0  0  0  0  0  0  0  0  0
    4.5000   15.5000    0.0000 F   0  0  0  0  0  0  0  0  0  0  0  0
    4.5000   12.5000    0.0000 F   0  0  0  0  0  0  0  0  0  0  0  0
    6.0000   14.0000    0.0000 C   0  0  0  0  0  0  0  0  0  0  0  0
    6.0000   15.5000    0.0000 F   0  0  0  0  0  0  0  0  0  0  0  0
    6.0000   12.5000    0.0000 F   0  0  0  0  0  0  0  0  0  0  0  0
    7.5000   14.0000    0.0000 C   0  0  0  0  0  0  0  0  0  0  0  0
    7.5000   12.5000    0.0000 F   0  0  0  0  0  0  0  0  0  0  0  0
    7.5000   15.5000    0.0000 F   0  0  0  0  0  0  0  0  0  0  0  0
    9.0000   14.0000    0.0000 C   0  0  0  0  0  0  0  0  0  0  0  0
    9.0000   15.5000    0.0000 F   0  0  0  0  0  0  0  0  0  0  0  0
    9.0000   12.5000    0.0000 F   0  0  0  0  0  0  0  0  0  0  0  0
   10.5000   14.0000    0.0000 C   0  0  0  0  0  0  0  0  0  0  0  0
   12.0000   14.0000    0.0000 F   0  0  0  0  0  0  0  0  0  0  0  0
   10.5000   12.5000    0.0000 F   0  0  0  0  0  0  0  0  0  0  0  0
   10.5000   15.5000    0.0000 F   0  0  0  0  0  0  0  0  0  0  0  0
   -0.0000   11.0000    0.0000 C   0  0  0  0  0  0  0  0  0  0  0  0
    1.5000   11.0000    0.0000 F   0  0  0  0  0  0  0  0  0  0  0  0
   -0.0000    9.5000    0.0000 F   0  0  0  0  0  0  0  0  0  0  0  0
   -1.5000   11.0000    0.0000 C   0  0  0  0  0  0  0  0  0  0  0  0
   -1.6828   12.4888    0.0000 F   0  0  0  0  0  0  0  0  0  0  0  0
   -1.5000    9.5000    0.0000 F   0  0  0  0  0  0  0  0  0  0  0  0
   -3.0000   11.0000    0.0000 C   0  0  0  0  0  0  0  0  0  0  0  0
   -3.0000   12.5000    0.0000 F   0  0  0  0  0  0  0  0  0  0  0  0
   -3.0000    9.5000    0.0000 F   0  0  0  0  0  0  0  0  0  0  0  0
   -4.5000   11.0000    0.0000 C   0  0  0  0  0  0  0  0  0  0  0  0
   -4.5000    9.5000    0.0000 F   0  0  0  0  0  0  0  0  0  0  0  0
   -4.5000   12.5000    0.0000 F   0  0  0  0  0  0  0  0  0  0  0  0
   -6.0000   11.0000    0.0000 C   0  0  0  0  0  0  0  0  0  0  0  0
   -6.0000   12.5000    0.0000 F   0  0  0  0  0  0  0  0  0  0  0  0
   -6.0000    9.5000    0.0000 F   0  0  0  0  0  0  0  0  0  0  0  0
   -7.5000   11.0000    0.0000 C   0  0  0  0  0  0  0  0  0  0  0  0
   -7.5000   12.5000    0.0000 F   0  0  0  0  0  0  0  0  0  0  0  0
   -7.5000    9.5000    0.0000 F   0  0  0  0  0  0  0  0  0  0  0  0
   -9.0000   11.0000    0.0000 C   0  0  0  0  0  0  0  0  0  0  0  0
   -9.0000    9.5000    0.0000 F   0  0  0  0  0  0  0  0  0  0  0  0
   -9.0000   12.5000    0.0000 F   0  0  0  0  0  0  0  0  0  0  0  0
  -10.5000   11.0000    0.0000 C   0  0  0  0  0  0  0  0  0  0  0  0
  -10.5000   12.5000    0.0000 F   0  0  0  0  0  0  0  0  0  0  0  0
  -10.5000    9.5000    0.0000 F   0  0  0  0  0  0  0  0  0  0  0  0
  -12.0000   11.0000    0.0000 C   0  0  0  0  0  0  0  0  0  0  0  0
  -12.0000    9.5000    0.0000 F   0  0  0  0  0  0  0  0  0  0  0  0
  -12.0000   12.5000    0.0000 F   0  0  0  0  0  0  0  0  0  0  0  0
  -13.5000   11.0000    0.0000 C   0  0  0  0  0  0  0  0  0  0  0  0
  -15.0000   11.0000    0.0000 F   0  0  0  0  0  0  0  0  0  0  0  0
  -13.5000   12.5000    0.0000 F   0  0  0  0  0  0  0  0  0  0  0  0
  -13.5000    9.5000    0.0000 F   0  0  0  0  0  0  0  0  0  0  0  0
    0.0000   16.5000    0.0000 Yb  0  0  0  0  0 15  0  0  0  0  0  0
  1  2  2  0
  2  3  1  0
  2  4  1  0
  4  5  1  0
  4  6  1  0
  4  7  1  0
  7  8  1  0
  7  9  1  0
  7 10  1  0
 10 11  1  0
 10 12  1  0
 10 13  1  0
 13 14  1  0
 13 15  1  0
 13 16  1  0
 16 17  1  0
 16 18  1  0
 16 19  1  0
 19 20  1  0
 19 21  1  0
 19 22  1  0
 22 23  1  0
 22 24  1  0
 22 25  1  0
 25 26  1  0
 25 27  1  0
 25 28  1  0
  2 29  1  0
 29 30  1  0
 29 31  1  0
 29 32  1  0
 32 33  1  0
 32 34  1  0
 32 35  1  0
 35 36  1  0
 35 37  1  0
 35 38  1  0
 38 39  1  0
 38 40  1  0
 38 41  1  0
 41 42  1  0
 41 43  1  0
 41 44  1  0
 44 45  1  0
 44 46  1  0
 44 47  1  0
 47 48  1  0
 47 49  1  0
 47 50  1  0
 50 51  1  0
 50 52  1  0
 50 53  1  0
 53 54  1  0
 53 55  1  0
 53 56  1  0
 56 57  1  0
 56 58  1  0
 56 59  1  0
 60 61  2  0
 61 62  1  0
 61 63  1  0
 63 64  1  0
 63 65  1  0
 63 66  1  0
 66 67  1  0
 66 68  1  0
 66 69  1  0
 69 70  1  0
 69 71  1  0
 69 72  1  0
 72 73  1  0
 72 74  1  0
 72 75  1  0
 75 76  1  0
 75 77  1  0
 75 78  1  0
 78 79  1  0
 78 80  1  0
 78 81  1  0
 81 82  1  0
 81 83  1  0
 81 84  1  0
 84 85  1  0
 84 86  1  0
 84 87  1  0
 61 88  1  0
 88 89  1  0
 88 90  1  0
 88 91  1  0
 91 92  1  0
 91 93  1  0
 91 94  1  0
 94 95  1  0
 94 96  1  0
 94 97  1  0
 97 98  1  0
 97 99  1  0
 97100  1  0
100101  1  0
100102  1  0
100103  1  0
103104  1  0
103105  1  0
103106  1  0
106107  1  0
106108  1  0
106109  1  0
109110  1  0
109111  1  0
109112  1  0
112113  1  0
112114  1  0
112115  1  0
115116  1  0
115117  1  0
115118  1  0
119120  2  0
120121  1  0
120122  1  0
122123  1  0
122124  1  0
122125  1  0
125126  1  0
125127  1  0
125128  1  0
128129  1  0
128130  1  0
128131  1  0
131132  1  0
131133  1  0
131134  1  0
134135  1  0
134136  1  0
134137  1  0
137138  1  0
137139  1  0
137140  1  0
140141  1  0
140142  1  0
140143  1  0
143144  1  0
143145  1  0
143146  1  0
120147  1  0
147148  1  0
147149  1  0
147150  1  0
150151  1  0
150152  1  0
150153  1  0
153154  1  0
153155  1  0
153156  1  0
156157  1  0
156158  1  0
156159  1  0
159160  1  0
159161  1  0
159162  1  0
162163  1  0
162164  1  0
162165  1  0
165166  1  0
165167  1  0
165168  1  0
168169  1  0
168170  1  0
168171  1  0
171172  1  0
171173  1  0
171174  1  0
174175  1  0
174176  1  0
174177  1  0
M  CHG  4   3  -1  62  -1 121  -1 178   3
M  END
$$$$

     RDKit          2D

 55 54  0  0  0  0  0  0  0  0999 V2000
    0.0000    0.0000    0.0000 C   0  0  0  0  0  0  0  0  0  0  0  0
    1.2990    0.7500    0.0000 O   0  0  0  0  0  0  0  0  0  0  0  0
    2.5981   -0.0000    0.0000 C   0  0  0  0  0  0  0  0  0  0  0  0
    3.8971    0.7500    0.0000 C   0  0  0  0  0  0  0  0  0  0  0  0
    5.1962   -0.0000    0.0000 O   0  0  0  0  0  0  0  0  0  0  0  0
    6.4952    0.7500    0.0000 C   0  0  0  0  0  0  0  0  0  0  0  0
    7.7942   -0.0000    0.0000 C   0  0  0  0  0  0  0  0  0  0  0  0
    9.0933    0.7500    0.0000 O   0  0  0  0  0  0  0  0  0  0  0  0
   10.3923   -0.0000    0.0000 C   0  0  0  0  0  0  0  0  0  0  0  0
   11.6913    0.7500    0.0000 C   0  0  0  0  0  0  0  0  0  0  0  0
   12.9904   -0.0000    0.0000 O   0  0  0  0  0  0  0  0  0  0  0  0
   14.2894    0.7500    0.0000 C   0  0  0  0  0  0  0  0  0  0  0  0
   15.5885   -0.0000    0.0000 C   0  0  0  0  0  0  0  0  0  0  0  0
   16.8875    0.7500    0.0000 O   0  0  0  0  0  0  0  0  0  0  0  0
   18.1865   -0.0000    0.0000 C   0  0  0  0  0  0  0  0  0  0  0  0
   19.4856    0.7500    0.0000 C   0  0  0  0  0  0  0  0  0  0  0  0
   20.7846   -0.0000    0.0000 O   0  0  0  0  0  0  0  0  0  0  0  0
   22.0836    0.7500    0.0000 C   0  0  0  0  0  0  0  0  0  0  0  0
   23.3827   -0.0000    0.0000 C   0  0  0  0  0  0  0  0  0  0  0  0
   24.6817    0.7500    0.0000 O   0  0  0  0  0  0  0  0  0  0  0  0
   25.9808   -0.0000    0.0000 C   0  0  0  0  0  0  0  0  0  0  0  0
   27.2798    0.7500    0.0000 C   0  0  0  0  0  0  0  0  0  0  0  0
   28.5788   -0.0000    0.0000 O   0  0  0  0  0  0  0  0  0  0  0  0
   29.8779    0.7500    0.0000 C   0  0  0  0  0  0  0  0  0  0  0  0
   31.1769   -0.0000    0.0000 C   0  0  0  0  0  0  0  0  0  0  0  0
   32.4760    0.7500    0.0000 O   0  0  0  0  0  0  0  0  0  0  0  0
   33.7750   -0.0000    0.0000 C   0  0  0  0  0  0  0  0  0  0  0  0
   35.0740    0.7500    0.0000 C   0  0  0  0  0  0  0  0  0  0  0  0
   35.0740    2.2500    0.0000 C   0  0  0  0  0  0  0  0  0  0  0  0
   35.0740    3.7500    0.0000 F   0  0  0  0  0  0  0  0  0  0  0  0
   35.9532    2.3580    0.0000 F   0  0  0  0  0  0  0  0  0  0  0  0
   33.5740    2.2500    0.0000 F   0  0  0  0  0  0  0  0  0  0  0  0
   36.3731    0.0000    0.0000 C   0  0  0  0  0  0  0  0  0  0  0  0
   35.6231   -1.2990    0.0000 C   0  0  0  0  0  0  0  0  0  0  0  0
   34.8731   -2.5981    0.0000 F   0  0  0  0  0  0  0  0  0  0  0  0
   34.1812   -0.8857    0.0000 F   0  0  0  0  0  0  0  0  0  0  0  0
   36.3304   -1.8321    0.0000 F   0  0  0  0  0  0  0  0  0  0  0  0
   37.6721   -0.7500    0.0000 C   0  0  0  0  0  0  0  0  0  0  0  0
   37.3260   -1.5653    0.0000 F   0  0  0  0  0  0  0  0  0  0  0  0
   38.2052   -0.0426    0.0000 F   0  0  0  0  0  0  0  0  0  0  0  0
   38.9711   -1.5000    0.0000 C   0  0  0  0  0  0  0  0  0  0  0  0
   40.2702   -2.2500    0.0000 F   0  0  0  0  0  0  0  0  0  0  0  0
   38.2211   -2.7990    0.0000 F   0  0  0  0  0  0  0  0  0  0  0  0
   39.7211   -0.2010    0.0000 F   0  0  0  0  0  0  0  0  0  0  0  0
   37.1231    1.2990    0.0000 C   0  0  0  0  0  0  0  0  0  0  0  0
   37.9384    0.9530    0.0000 F   0  0  0  0  0  0  0  0  0  0  0  0
   36.5657    1.9874    0.0000 F   0  0  0  0  0  0  0  0  0  0  0  0
   37.8731    2.5981    0.0000 C   0  0  0  0  0  0  0  0  0  0  0  0
   38.6231    3.8971    0.0000 F   0  0  0  0  0  0  0  0  0  0  0  0
   39.1721    1.8481    0.0000 F   0  0  0  0  0  0  0  0  0  0  0  0
   36.5740    3.3481    0.0000 F   0  0  0  0  0  0  0  0  0  0  0  0
   33.7750   -1.5000    0.0000 C   0  0  0  0  0  0  0  0  0  0  0  0
   33.7750   -3.0000    0.0000 F   0  0  0  0  0  0  0  0  0  0  0  0
   35.2304   -1.8630    0.0000 F   0  0  0  0  0  0  0  0  0  0  0  0
   32.2750   -1.5000    0.0000 F   0  0  0  0  0  0  0  0  0  0  0  0
  1  2  1  0
  2  3  1  0
  3  4  1  0
  4  5  1  0
  5  6  1  0
  6  7  1  0
  7  8  1  0
  8  9  1  0
  9 10  1  0
 10 11  1  0
 11 12  1  0
 12 13  1  0
 13 14  1  0
 14 15  1  0
 15 16  1  0
 16 17  1  0
 17 18  1  0
 18 19  1  0
 19 20  1  0
 20 21  1  0
 21 22  1  0
 22 23  1  0
 23 24  1  0
 24 25  1  0
 25 26  1  0
 26 27  1  0
 27 28  2  3
 28 29  1  0
 29 30  1  0
 29 31  1  0
 29 32  1  0
 28 33  1  0
 33 34  1  0
 34 35  1  0
 34 36  1  0
 34 37  1  0
 33 38  1  0
 38 39  1  0
 38 40  1  0
 38 41  1  0
 41 42  1  0
 41 43  1  0
 41 44  1  0
 33 45  1  0
 45 46  1  0
 45 47  1  0
 45 48  1  0
 48 49  1  0
 48 50  1  0
 48 51  1  0
 27 52  1  0
 52 53  1  0
 52 54  1  0
 52 55  1  0
M  END
$$$$

     RDKit          2D

 42 40  0  0  0  0  0  0  0  0999 V2000
    1.2990    2.2500    0.0000 C   0  0  0  0  0  0  0  0  0  0  0  0
    1.2990    0.7500    0.0000 C   0  0  0  0  0  0  0  0  0  0  0  0
    2.5981    0.0000    0.0000 C   0  0  0  0  0  0  0  0  0  0  0  0
    2.5981   -1.5000    0.0000 C   0  0  0  0  0  0  0  0  0  0  0  0
    3.8971   -2.2500    0.0000 C   0  0  0  0  0  0  0  0  0  0  0  0
    3.8971   -3.7500    0.0000 C   0  0  0  0  0  0  0  0  0  0  0  0
    5.1962   -4.5000    0.0000 N   0  0  0  0  0  0  0  0  0  0  0  0
    5.9462   -3.2010    0.0000 C   0  0  0  0  0  0  0  0  0  0  0  0
    4.4462   -5.7990    0.0000 C   0  0  0  0  0  0  0  0  0  0  0  0
    6.4952   -5.2500    0.0000 C   0  0  0  0  0  0  0  0  0  0  0  0
    7.7942   -4.5000    0.0000 C   0  0  0  0  0  0  0  0  0  0  0  0
    9.0933   -5.2500    0.0000 C   0  0  0  0  0  0  0  0  0  0  0  0
   10.3923   -4.5000    0.0000 N   0  0  0  0  0  0  0  0  0  0  0  0
   11.6913   -5.2500    0.0000 S   0  0  0  0  0  0  0  0  0  0  0  0
   10.9413   -6.5490    0.0000 O   0  0  0  0  0  0  0  0  0  0  0  0
   12.0028   -4.5162    0.0000 O   0  0  0  0  0  0  0  0  0  0  0  0
   12.9904   -6.0000    0.0000 C   0  0  0  0  0  0  0  0  0  0  0  0
   12.2404   -7.2990    0.0000 F   0  0  0  0  0  0  0  0  0  0  0  0
   14.2894   -6.7500    0.0000 F   0  0  0  0  0  0  0  0  0  0  0  0
   13.7404   -4.7010    0.0000 C   0  0  0  0  0  0  0  0  0  0  0  0
   13.0330   -4.1679    0.0000 F   0  0  0  0  0  0  0  0  0  0  0  0
   15.0394   -5.4510    0.0000 F   0  0  0  0  0  0  0  0  0  0  0  0
   14.4904   -3.4019    0.0000 C   0  0  0  0  0  0  0  0  0  0  0  0
   13.1913   -2.6519    0.0000 F   0  0  0  0  0  0  0  0  0  0  0  0
   15.7894   -4.1519    0.0000 F   0  0  0  0  0  0  0  0  0  0  0  0
   15.2404   -2.1029    0.0000 C   0  0  0  0  0  0  0  0  0  0  0  0
   16.5394   -2.8529    0.0000 F   0  0  0  0  0  0  0  0  0  0  0  0
   13.9413   -1.3529    0.0000 F   0  0  0  0  0  0  0  0  0  0  0  0
   15.9904   -0.8038    0.0000 C   0  0  0  0  0  0  0  0  0  0  0  0
   17.2894   -1.5538    0.0000 F   0  0  0  0  0  0  0  0  0  0  0  0
   14.6913   -0.0538    0.0000 F   0  0  0  0  0  0  0  0  0  0  0  0
   16.7404    0.4952    0.0000 C   0  0  0  0  0  0  0  0  0  0  0  0
   15.4413    1.2452    0.0000 F   0  0  0  0  0  0  0  0  0  0  0  0
   18.0394   -0.2548    0.0000 F   0  0  0  0  0  0  0  0  0  0  0  0
   17.4904    1.7942    0.0000 C   0  0  0  0  0  0  0  0  0  0  0  0
   18.7894    1.0442    0.0000 F   0  0  0  0  0  0  0  0  0  0  0  0
   16.1913    2.5442    0.0000 F   0  0  0  0  0  0  0  0  0  0  0  0
   18.2404    3.0933    0.0000 C   0  0  0  0  0  0  0  0  0  0  0  0
   18.9904    4.3923    0.0000 F   0  0  0  0  0  0  0  0  0  0  0  0
   16.9413    3.8433    0.0000 F   0  0  0  0  0  0  0  0  0  0  0  0
   19.5394    2.3433    0.0000 F   0  0  0  0  0  0  0  0  0  0  0  0
    0.0000    5.3923    0.0000 Br  0  0  0  0  0  0  0  0  0  0  0  0
  1  2  1  0
  2  3  1  0
  3  4  1  0
  4  5  1  0
  5  6  1  0
  6  7  1  0
  7  8  1  0
  7  9  1  0
  7 10  1  0
 10 11  1  0
 11 12  1  0
 12 13  1  0
 13 14  1  0
 14 15  2  0
 14 16  2  0
 14 17  1  0
 17 18  1  0
 17 19  1  0
 17 20  1  0
 20 21  1  0
 20 22  1  0
 20 23  1  0
 23 24  1  0
 23 25  1  0
 23 26  1  0
 26 27  1  0
 26 28  1  0
 26 29  1  0
 29 30  1  0
 29 31  1  0
 29 32  1  0
 32 33  1  0
 32 34  1  0
 32 35  1  0
 35 36  1  0
 35 37  1  0
 35 38  1  0
 38 39  1  0
 38 40  1  0
 38 41  1  0
M  CHG  2   7   1  42  -1
M  END
$$$$

     RDKit          2D

 18 16  0  0  0  0  0  0  0  0999 V2000
    0.0000    0.0000    0.0000 C   0  0  0  0  0  0  0  0  0  0  0  0
    1.2990    0.7500    0.0000 N   0  0  0  0  0  0  0  0  0  0  0  0
    2.5981    1.5000    0.0000 C   0  0  0  0  0  0  0  0  0  0  0  0
    2.0490   -0.5490    0.0000 C   0  0  0  0  0  0  0  0  0  0  0  0
    0.5490    2.0490    0.0000 C   0  0  0  0  0  0  0  0  0  0  0  0
    1.2990    3.3481    0.0000 C   0  0  0  0  0  0  0  0  0  0  0  0
    0.5490    4.6471    0.0000 C   0  0  0  0  0  0  0  0  0  0  0  0
    1.2990    5.9462    0.0000 N   0  0  0  0  0  0  0  0  0  0  0  0
    0.5490    7.2452    0.0000 C   0  0  0  0  0  0  0  0  0  0  0  0
   -0.9510    7.2452    0.0000 O   0  0  0  0  0  0  0  0  0  0  0  0
    1.2990    8.5442    0.0000 C   0  0  0  0  0  0  0  0  0  0  0  0
    0.0000    9.2942    0.0000 F   0  0  0  0  0  0  0  0  0  0  0  0
    2.5981    7.7942    0.0000 F   0  0  0  0  0  0  0  0  0  0  0  0
    2.0490    9.8433    0.0000 C   0  0  0  0  0  0  0  0  0  0  0  0
    2.7990   11.1423    0.0000 F   0  0  0  0  0  0  0  0  0  0  0  0
    3.3481    9.0933    0.0000 F   0  0  0  0  0  0  0  0  0  0  0  0
    0.7500   10.5933    0.0000 F   0  0  0  0  0  0  0  0  0  0  0  0
    4.3481    0.0000    0.0000 I   0  0  0  0  0  0  0  0  0  0  0  0
  1  2  1  0
  2  3  1  0
  2  4  1  0
  2  5  1  0
  5  6  1  0
  6  7  1  0
  7  8  1  0
  8  9  1  0
  9 10  2  0
  9 11  1  0
 11 12  1  0
 11 13  1  0
 11 14  1  0
 14 15  1  0
 14 16  1  0
 14 17  1  0
M  CHG  2   2   1  18  -1
M  END
$$$$

     RDKit          2D

 40 39  0  0  0  0  0  0  0  0999 V2000
    7.0981    4.0981    0.0000 C   0  0  0  0  0  0  0  0  0  0  0  0
    5.7990    3.3481    0.0000 N   0  0  0  0  0  0  0  0  0  0  0  0
    4.5000    2.5981    0.0000 C   0  0  0  0  0  0  0  0  0  0  0  0
    6.5490    2.0490    0.0000 C   0  0  0  0  0  0  0  0  0  0  0  0
    5.7990    0.7500    0.0000 C   0  0  0  0  0  0  0  0  0  0  0  0
    6.5490   -0.5490    0.0000 C   0  0  0  0  0  0  0  0  0  0  0  0
    5.7990   -1.8481    0.0000 N   0  0  0  0  0  0  0  0  0  0  0  0
    6.5490   -3.1471    0.0000 S   0  0  0  0  0  0  0  0  0  0  0  0
    7.8481   -2.3971    0.0000 O   0  0  0  0  0  0  0  0  0  0  0  0
    5.8152   -3.4586    0.0000 O   0  0  0  0  0  0  0  0  0  0  0  0
    7.2990   -4.4462    0.0000 C   0  0  0  0  0  0  0  0  0  0  0  0
    8.5981   -3.6962    0.0000 F   0  0  0  0  0  0  0  0  0  0  0  0
    8.0490   -5.7452    0.0000 F   0  0  0  0  0  0  0  0  0  0  0  0
    6.0000   -5.1962    0.0000 C   0  0  0  0  0  0  0  0  0  0  0  0
    5.4669   -4.4888    0.0000 F   0  0  0  0  0  0  0  0  0  0  0  0
    6.7500   -6.4952    0.0000 F   0  0  0  0  0  0  0  0  0  0  0  0
    4.7010   -5.9462    0.0000 C   0  0  0  0  0  0  0  0  0  0  0  0
    5.4510   -7.2452    0.0000 F   0  0  0  0  0  0  0  0  0  0  0  0
    3.9510   -4.6471    0.0000 F   0  0  0  0  0  0  0  0  0  0  0  0
    3.4019   -6.6962    0.0000 C   0  0  0  0  0  0  0  0  0  0  0  0
    2.6519   -5.3971    0.0000 F   0  0  0  0  0  0  0  0  0  0  0  0
    4.1519   -7.9952    0.0000 F   0  0  0  0  0  0  0  0  0  0  0  0
    2.1029   -7.4462    0.0000 C   0  0  0  0  0  0  0  0  0  0  0  0
    1.3529   -6.1471    0.0000 F   0  0  0  0  0  0  0  0  0  0  0  0
    2.8529   -8.7452    0.0000 F   0  0  0  0  0  0  0  0  0  0  0  0
    0.8038   -8.1962    0.0000 C   0  0  0  0  0  0  0  0  0  0  0  0
    1.5538   -9.4952    0.0000 F   0  0  0  0  0  0  0  0  0  0  0  0
    0.0538   -6.8971    0.0000 F   0  0  0  0  0  0  0  0  0  0  0  0
   -0.4952   -8.9462    0.0000 C   0  0  0  0  0  0  0  0  0  0  0  0
   -1.7942   -9.6962    0.0000 F   0  0  0  0  0  0  0  0  0  0  0  0
   -1.2452   -7.6471    0.0000 F   0  0  0  0  0  0  0  0  0  0  0  0
    0.2548  -10.2452    0.0000 F   0  0  0  0  0  0  0  0  0  0  0  0
    5.0490    4.6471    0.0000 C   0  0  0  0  0  0  0  0  0  0  0  0
    3.5490    4.6471    0.0000 C   0  0  0  0  0  0  0  0  0  0  0  0
    2.7990    3.3481    0.0000 O   0  0  0  0  0  0  0  0  0  0  0  0
    2.7990    5.9462    0.0000 C   0  0  0  0  0  0  0  0  0  0  0  0
    1.2990    5.9462    0.0000 S   0  0  0  0  0  0  0  0  0  0  0  0
    1.2990    7.4462    0.0000 O   0  0  0  0  0  0  0  0  0  0  0  0
    1.2990    4.4462    0.0000 O   0  0  0  0  0  0  0  0  0  0  0  0
   -0.2010    5.9462    0.0000 O   0  0  0  0  0  0  0  0  0  0  0  0
  1  2  1  0
  2  3  1  0
  2  4  1  0
  4  5  1  0
  5  6  1  0
  6  7  1  0
  7  8  1  0
  8  9  2  0
  8 10  2  0
  8 11  1  0
 11 12  1  0
 11 13  1  0
 11 14  1  0
 14 15  1  0
 14 16  1  0
 14 17  1  0
 17 18  1  0
 17 19  1  0
 17 20  1  0
 20 21  1  0
 20 22  1  0
 20 23  1  0
 23 24  1  0
 23 25  1  0
 23 26  1  0
 26 27  1  0
 26 28  1  0
 26 29  1  0
 29 30  1  0
 29 31  1  0
 29 32  1  0
  2 33  1  0
 33 34  1  0
 34 35  1  0
 34 36  1  0
 36 37  1  0
 37 38  2  0
 37 39  2  0
 37 40  1  0
M  CHG  1   2   1
M  END
$$$$

     RDKit          2D

 18 17  0  0  0  0  0  0  0  0999 V2000
   -3.8971    2.2500    0.0000 F   0  0  0  0  0  0  0  0  0  0  0  0
   -2.5981    1.5000    0.0000 C   0  0  0  0  0  0  0  0  0  0  0  0
   -1.8481    2.7990    0.0000 F   0  0  0  0  0  0  0  0  0  0  0  0
   -3.3481    0.2010    0.0000 F   0  0  0  0  0  0  0  0  0  0  0  0
   -1.2990    0.7500    0.0000 C   0  0  0  0  0  0  0  0  0  0  0  0
   -2.0490   -0.5490    0.0000 F   0  0  0  0  0  0  0  0  0  0  0  0
   -0.5490    2.0490    0.0000 F   0  0  0  0  0  0  0  0  0  0  0  0
    0.0000    0.0000    0.0000 C   0  0  0  0  0  0  0  0  0  0  0  0
    1.2990    0.7500    0.0000 C   0  0  0  0  0  0  0  0  0  0  0  0
    2.5981   -0.0000    0.0000 C   0  0  0  0  0  0  0  0  0  0  0  0
    3.8971    0.7500    0.0000 C   0  0  0  0  0  0  0  0  0  0  0  0
    5.1962   -0.0000    0.0000 C   0  0  0  0  0  0  0  0  0  0  0  0
    5.9462    1.2990    0.0000 F   0  0  0  0  0  0  0  0  0  0  0  0
    4.4462   -1.2990    0.0000 F   0  0  0  0  0  0  0  0  0  0  0  0
    6.4952   -0.7500    0.0000 C   0  0  0  0  0  0  0  0  0  0  0  0
    7.7942   -1.5000    0.0000 F   0  0  0  0  0  0  0  0  0  0  0  0
    5.7452   -2.0490    0.0000 F   0  0  0  0  0  0  0  0  0  0  0  0
    7.2452    0.5490    0.0000 F   0  0  0  0  0  0  0  0  0  0  0  0
  1  2  1  0
  2  3  1  0
  2  4  1  0
  2  5  1  0
  5  6  1  0
  5  7  1  0
  5  8  1  0
  8  9  1  0
  9 10  1  0
 10 11  1  0
 11 12  1  0
 12 13  1  0
 12 14  1  0
 12 15  1  0
 15 16  1  0
 15 17  1  0
 15 18  1  0
M  END
$$$$

     RDKit          2D

 17 15  0  0  0  0  0  0  0  0999 V2000
    1.1979   -2.4028    0.0000 O   0  0  0  0  0  0  0  0  0  0  0  0
    0.0000   -1.5000    0.0000 S   0  0  0  0  0  0  0  0  0  0  0  0
   -1.2990   -2.2500    0.0000 O   0  0  0  0  0  0  0  0  0  0  0  0
    0.0000    0.0000    0.0000 C   0  0  0  0  0  0  0  0  0  0  0  0
   -1.5000    0.0000    0.0000 F   0  0  0  0  0  0  0  0  0  0  0  0
    0.0000    1.5000    0.0000 F   0  0  0  0  0  0  0  0  0  0  0  0
    1.5000    0.0000    0.0000 C   0  0  0  0  0  0  0  0  0  0  0  0
    1.5000    1.5000    0.0000 F   0  0  0  0  0  0  0  0  0  0  0  0
    1.6828   -1.4888    0.0000 F   0  0  0  0  0  0  0  0  0  0  0  0
    3.0000    0.0000    0.0000 C   0  0  0  0  0  0  0  0  0  0  0  0
    3.0000    1.5000    0.0000 F   0  0  0  0  0  0  0  0  0  0  0  0
    3.0000   -1.5000    0.0000 F   0  0  0  0  0  0  0  0  0  0  0  0
    4.5000    0.0000    0.0000 C   0  0  0  0  0  0  0  0  0  0  0  0
    6.0000    0.0000    0.0000 F   0  0  0  0  0  0  0  0  0  0  0  0
    4.5000   -1.5000    0.0000 F   0  0  0  0  0  0  0  0  0  0  0  0
    4.5000    1.5000    0.0000 F   0  0  0  0  0  0  0  0  0  0  0  0
    0.0000    2.5000    0.0000 N   0  0  0  0  0  0  0  0  0  0  0  0
  1  2  2  0
  2  3  1  0
  2  4  1  0
  4  5  1  0
  4  6  1  0
  4  7  1  0
  7  8  1  0
  7  9  1  0
  7 10  1  0
 10 11  1  0
 10 12  1  0
 10 13  1  0
 13 14  1  0
 13 15  1  0
 13 16  1  0
M  CHG  2   3  -1  17   1
M  END
$$$$

     RDKit          2D

 28 26  0  0  0  0  0  0  0  0999 V2000
    0.0000    0.0000    0.0000 C   0  0  0  0  0  0  0  0  0  0  0  0
    1.2990    0.7500    0.0000 N   0  0  0  0  0  0  0  0  0  0  0  0
    2.5981    1.5000    0.0000 C   0  0  0  0  0  0  0  0  0  0  0  0
    2.0490   -0.5490    0.0000 C   0  0  0  0  0  0  0  0  0  0  0  0
    0.5490    2.0490    0.0000 C   0  0  0  0  0  0  0  0  0  0  0  0
    3.5981   -1.5000    0.0000 O   0  0  0  0  0  0  0  0  0  0  0  0
    5.0981   -1.5000    0.0000 S   0  0  0  0  0  0  0  0  0  0  0  0
    5.8893   -1.5972    0.0000 O   0  0  0  0  0  0  0  0  0  0  0  0
    5.0981   -3.0000    0.0000 O   0  0  0  0  0  0  0  0  0  0  0  0
    5.0981    0.0000    0.0000 C   0  0  0  0  0  0  0  0  0  0  0  0
    3.5981    0.0000    0.0000 F   0  0  0  0  0  0  0  0  0  0  0  0
    5.0981    1.5000    0.0000 F   0  0  0  0  0  0  0  0  0  0  0  0
    6.5981    0.0000    0.0000 C   0  0  0  0  0  0  0  0  0  0  0  0
    6.5981    1.5000    0.0000 F   0  0  0  0  0  0  0  0  0  0  0  0
    6.7060   -0.8791    0.0000 F   0  0  0  0  0  0  0  0  0  0  0  0
    8.0981    0.0000    0.0000 C   0  0  0  0  0  0  0  0  0  0  0  0
    8.0981   -1.5000    0.0000 F   0  0  0  0  0  0  0  0  0  0  0  0
    8.0981    1.5000    0.0000 F   0  0  0  0  0  0  0  0  0  0  0  0
    9.5981    0.0000    0.0000 C   0  0  0  0  0  0  0  0  0  0  0  0
    9.5981   -1.5000    0.0000 F   0  0  0  0  0  0  0  0  0  0  0  0
    9.5981    1.5000    0.0000 F   0  0  0  0  0  0  0  0  0  0  0  0
   11.0981    0.0000    0.0000 C   0  0  0  0  0  0  0  0  0  0  0  0
   11.0981    1.5000    0.0000 F   0  0  0  0  0  0  0  0  0  0  0  0
   11.0981   -1.5000    0.0000 F   0  0  0  0  0  0  0  0  0  0  0  0
   12.5981    0.0000    0.0000 C   0  0  0  0  0  0  0  0  0  0  0  0
   14.0981    0.0000    0.0000 F   0  0  0  0  0  0  0  0  0  0  0  0
   12.5981   -1.5000    0.0000 F   0  0  0  0  0  0  0  0  0  0  0  0
   12.5981    1.5000    0.0000 F   0  0  0  0  0  0  0  0  0  0  0  0
  1  2  1  0
  2  3  1  0
  2  4  1  0
  2  5  1  0
  6  7  2  0
  7  8  2  0
  7  9  1  0
  7 10  1  0
 10 11  1  0
 10 12  1  0
 10 13  1  0
 13 14  1  0
 13 15  1  0
 13 16  1  0
 16 17  1  0
 16 18  1  0
 16 19  1  0
 19 20  1  0
 19 21  1  0
 19 22  1  0
 22 23  1  0
 22 24  1  0
 22 25  1  0
 25 26  1  0
 25 27  1  0
 25 28  1  0
M  CHG  2   2   1   9  -1
M  END
$$$$

     RDKit          2D

 34 33  0  0  0  0  0  0  0  0999 V2000
    5.1962   -1.5000    0.0000 O   0  0  0  0  0  0  0  0  0  0  0  0
    5.1962    0.0000    0.0000 C   0  0  0  0  0  0  0  0  0  0  0  0
    6.4952    0.7500    0.0000 C   0  0  0  0  0  0  0  0  0  0  0  0
    7.7942    1.5000    0.0000 F   0  0  0  0  0  0  0  0  0  0  0  0
    7.2452   -0.5490    0.0000 F   0  0  0  0  0  0  0  0  0  0  0  0
    5.7452    2.0490    0.0000 F   0  0  0  0  0  0  0  0  0  0  0  0
    3.8971    0.7500    0.0000 C   0  0  0  0  0  0  0  0  0  0  0  0
    3.1471   -0.5490    0.0000 F   0  0  0  0  0  0  0  0  0  0  0  0
    4.3769    1.3866    0.0000 F   0  0  0  0  0  0  0  0  0  0  0  0
    2.5981    1.5000    0.0000 O   0  0  0  0  0  0  0  0  0  0  0  0
    2.5981    3.0000    0.0000 C   0  0  0  0  0  0  0  0  0  0  0  0
    2.5981    4.5000    0.0000 F   0  0  0  0  0  0  0  0  0  0  0  0
    4.0981    3.0000    0.0000 C   0  0  0  0  0  0  0  0  0  0  0  0
    5.5981    3.0000    0.0000 F   0  0  0  0  0  0  0  0  0  0  0  0
    4.3838    2.2558    0.0000 F   0  0  0  0  0  0  0  0  0  0  0  0
    4.0981    4.5000    0.0000 F   0  0  0  0  0  0  0  0  0  0  0  0
    1.0981    3.0000    0.0000 C   0  0  0  0  0  0  0  0  0  0  0  0
    1.2809    4.4888    0.0000 F   0  0  0  0  0  0  0  0  0  0  0  0
    1.0981    1.5000    0.0000 F   0  0  0  0  0  0  0  0  0  0  0  0
   -0.4019    3.0000    0.0000 O   0  0  0  0  0  0  0  0  0  0  0  0
   -1.1519    4.2990    0.0000 C   0  0  0  0  0  0  0  0  0  0  0  0
   -1.9019    5.5981    0.0000 F   0  0  0  0  0  0  0  0  0  0  0  0
   -2.4510    3.5490    0.0000 C   0  0  0  0  0  0  0  0  0  0  0  0
   -3.7500    2.7990    0.0000 F   0  0  0  0  0  0  0  0  0  0  0  0
   -3.2010    4.8481    0.0000 F   0  0  0  0  0  0  0  0  0  0  0  0
   -1.7010    2.2500    0.0000 F   0  0  0  0  0  0  0  0  0  0  0  0
    0.1471    5.0490    0.0000 C   0  0  0  0  0  0  0  0  0  0  0  0
   -0.6029    6.3481    0.0000 F   0  0  0  0  0  0  0  0  0  0  0  0
    1.3129    4.1052    0.0000 F   0  0  0  0  0  0  0  0  0  0  0  0
    1.4462    5.7990    0.0000 O   0  0  0  0  0  0  0  0  0  0  0  0
    1.4462    7.2990    0.0000 C   0  0  0  0  0  0  0  0  0  0  0  0
    1.4462    8.7990    0.0000 F   0  0  0  0  0  0  0  0  0  0  0  0
    2.9462    7.2990    0.0000 F   0  0  0  0  0  0  0  0  0  0  0  0
   -0.0538    7.2990    0.0000 F   0  0  0  0  0  0  0  0  0  0  0  0
  1  2  2  0
  2  3  1  0
  3  4  1  0
  3  5  1  0
  3  6  1  0
  2  7  1  0
  7  8  1  0
  7  9  1  0
  7 10  1  0
 10 11  1  0
 11 12  1  0
 11 13  1  0
 13 14  1  0
 13 15  1  0
 13 16  1  0
 11 17  1  0
 17 18  1  0
 17 19  1  0
 17 20  1  0
 20 21  1  0
 21 22  1  0
 21 23  1  0
 23 24  1  0
 23 25  1  0
 23 26  1  0
 21 27  1  0
 27 28  1  0
 27 29  1  0
 27 30  1  0
 30 31  1  0
 31 32  1  0
 31 33  1  0
 31 34  1  0
M  END
$$$$

     RDKit          2D

 22 20  0  0  0  0  0  0  0  0999 V2000
    0.0000    0.0000    0.0000 C   0  0  0  0  0  0  0  0  0  0  0  0
    1.2990    0.7500    0.0000 N   0  0  0  0  0  0  0  0  0  0  0  0
    2.5981    1.5000    0.0000 C   0  0  0  0  0  0  0  0  0  0  0  0
    2.0490   -0.5490    0.0000 C   0  0  0  0  0  0  0  0  0  0  0  0
    0.5490    2.0490    0.0000 C   0  0  0  0  0  0  0  0  0  0  0  0
    1.2990    3.3481    0.0000 C   0  0  0  0  0  0  0  0  0  0  0  0
    0.5490    4.6471    0.0000 C   0  0  0  0  0  0  0  0  0  0  0  0
    1.2990    5.9462    0.0000 N   0  0  0  0  0  0  0  0  0  0  0  0
    0.5490    7.2452    0.0000 S   0  0  0  0  0  0  0  0  0  0  0  0
   -0.7500    6.4952    0.0000 O   0  0  0  0  0  0  0  0  0  0  0  0
    1.2828    7.5566    0.0000 O   0  0  0  0  0  0  0  0  0  0  0  0
   -0.2010    8.5442    0.0000 C   0  0  0  0  0  0  0  0  0  0  0  0
   -1.5000    7.7942    0.0000 F   0  0  0  0  0  0  0  0  0  0  0  0
   -0.9510    9.8433    0.0000 F   0  0  0  0  0  0  0  0  0  0  0  0
    1.0981    9.2942    0.0000 C   0  0  0  0  0  0  0  0  0  0  0  0
    1.6311    8.5869    0.0000 F   0  0  0  0  0  0  0  0  0  0  0  0
    0.3481   10.5933    0.0000 F   0  0  0  0  0  0  0  0  0  0  0  0
    2.3971   10.0442    0.0000 C   0  0  0  0  0  0  0  0  0  0  0  0
    3.6962   10.7942    0.0000 F   0  0  0  0  0  0  0  0  0  0  0  0
    1.6471   11.3433    0.0000 F   0  0  0  0  0  0  0  0  0  0  0  0
    3.1471    8.7452    0.0000 F   0  0  0  0  0  0  0  0  0  0  0  0
    4.6962    0.0000    0.0000 I   0  0  0  0  0  0  0  0  0  0  0  0
  1  2  1  0
  2  3  1  0
  2  4  1  0
  2  5  1  0
  5  6  1  0
  6  7  1  0
  7  8  1  0
  8  9  1  0
  9 10  2  0
  9 11  2  0
  9 12  1  0
 12 13  1  0
 12 14  1  0
 12 15  1  0
 15 16  1  0
 15 17  1  0
 15 18  1  0
 18 19  1  0
 18 20  1  0
 18 21  1  0
M  CHG  2   2   1  22  -1
M  END
$$$$

     RDKit          2D

 43 42  0  0  0  0  0  0  0  0999 V2000
    0.0000    0.0000    0.0000 C   0  0  0  0  0  0  0  0  0  0  0  0
    1.2990    0.7500    0.0000 N   0  0  0  0  0  0  0  0  0  0  0  0
    2.5981    1.5000    0.0000 C   0  0  0  0  0  0  0  0  0  0  0  0
    0.5490    2.0490    0.0000 O   0  0  0  0  0  0  0  0  0  0  0  0
    2.0490   -0.5490    0.0000 C   0  0  0  0  0  0  0  0  0  0  0  0
    3.5490   -0.5490    0.0000 C   0  0  0  0  0  0  0  0  0  0  0  0
    4.2990   -1.8481    0.0000 N   0  0  0  0  0  0  0  0  0  0  0  0
    5.7990   -1.8481    0.0000 C   0  0  0  0  0  0  0  0  0  0  0  0
    6.5490   -0.5490    0.0000 O   0  0  0  0  0  0  0  0  0  0  0  0
    6.5490   -3.1471    0.0000 C   0  0  0  0  0  0  0  0  0  0  0  0
    7.8481   -2.3971    0.0000 F   0  0  0  0  0  0  0  0  0  0  0  0
    5.2500   -3.8971    0.0000 F   0  0  0  0  0  0  0  0  0  0  0  0
    7.2990   -4.4462    0.0000 C   0  0  0  0  0  0  0  0  0  0  0  0
    6.0000   -5.1962    0.0000 F   0  0  0  0  0  0  0  0  0  0  0  0
    8.5981   -3.6962    0.0000 F   0  0  0  0  0  0  0  0  0  0  0  0
    8.0490   -5.7452    0.0000 C   0  0  0  0  0  0  0  0  0  0  0  0
    9.3481   -4.9952    0.0000 F   0  0  0  0  0  0  0  0  0  0  0  0
    6.7500   -6.4952    0.0000 F   0  0  0  0  0  0  0  0  0  0  0  0
    8.7990   -7.0442    0.0000 C   0  0  0  0  0  0  0  0  0  0  0  0
    7.5000   -7.7942    0.0000 F   0  0  0  0  0  0  0  0  0  0  0  0
   10.0981   -6.2942    0.0000 F   0  0  0  0  0  0  0  0  0  0  0  0
    9.5490   -8.3433    0.0000 C   0  0  0  0  0  0  0  0  0  0  0  0
   10.8481   -7.5933    0.0000 F   0  0  0  0  0  0  0  0  0  0  0  0
    8.2500   -9.0933    0.0000 F   0  0  0  0  0  0  0  0  0  0  0  0
   10.2990   -9.6423    0.0000 C   0  0  0  0  0  0  0  0  0  0  0  0
    9.0000  -10.3923    0.0000 F   0  0  0  0  0  0  0  0  0  0  0  0
   11.5981   -8.8923    0.0000 F   0  0  0  0  0  0  0  0  0  0  0  0
   11.0490  -10.9413    0.0000 C   0  0  0  0  0  0  0  0  0  0  0  0
   12.3481  -10.1913    0.0000 F   0  0  0  0  0  0  0  0  0  0  0  0
    9.7500  -11.6913    0.0000 F   0  0  0  0  0  0  0  0  0  0  0  0
   11.7990  -12.2404    0.0000 C   0  0  0  0  0  0  0  0  0  0  0  0
   10.5000  -12.9904    0.0000 F   0  0  0  0  0  0  0  0  0  0  0  0
   13.0981  -11.4904    0.0000 F   0  0  0  0  0  0  0  0  0  0  0  0
   12.5490  -13.5394    0.0000 C   0  0  0  0  0  0  0  0  0  0  0  0
   13.8481  -12.7894    0.0000 F   0  0  0  0  0  0  0  0  0  0  0  0
   11.2500  -14.2894    0.0000 F   0  0  0  0  0  0  0  0  0  0  0  0
   13.2990  -14.8385    0.0000 C   0  0  0  0  0  0  0  0  0  0  0  0
   12.0000  -15.5885    0.0000 F   0  0  0  0  0  0  0  0  0  0  0  0
   14.5981  -14.0885    0.0000 F   0  0  0  0  0  0  0  0  0  0  0  0
   14.0490  -16.1375    0.0000 C   0  0  0  0  0  0  0  0  0  0  0  0
   14.7990  -17.4365    0.0000 F   0  0  0  0  0  0  0  0  0  0  0  0
   15.3481  -15.3875    0.0000 F   0  0  0  0  0  0  0  0  0  0  0  0
   12.7500  -16.8875    0.0000 F   0  0  0  0  0  0  0  0  0  0  0  0
  1  2  1  0
  2  3  1  0
  2  4  1  0
  2  5  1  0
  5  6  1  0
  6  7  1  0
  7  8  1  0
  8  9  2  0
  8 10  1  0
 10 11  1  0
 10 12  1  0
 10 13  1  0
 13 14  1  0
 13 15  1  0
 13 16  1  0
 16 17  1  0
 16 18  1  0
 16 19  1  0
 19 20  1  0
 19 21  1  0
 19 22  1  0
 22 23  1  0
 22 24  1  0
 22 25  1  0
 25 26  1  0
 25 27  1  0
 25 28  1  0
 28 29  1  0
 28 30  1  0
 28 31  1  0
 31 32  1  0
 31 33  1  0
 31 34  1  0
 34 35  1  0
 34 36  1  0
 34 37  1  0
 37 38  1  0
 37 39  1  0
 37 40  1  0
 40 41  1  0
 40 42  1  0
 40 43  1  0
M  CHG  2   2   1   4  -1
M  END
$$$$

     RDKit          2D

 26 25  0  0  0  0  0  0  0  0999 V2000
    2.5981    1.5000    0.0000 F   0  0  0  0  0  0  0  0  0  0  0  0
    1.2990    0.7500    0.0000 C   0  0  0  0  0  0  0  0  0  0  0  0
    2.0490   -0.5490    0.0000 F   0  0  0  0  0  0  0  0  0  0  0  0
    0.5490    2.0490    0.0000 F   0  0  0  0  0  0  0  0  0  0  0  0
    0.0000    0.0000    0.0000 C   0  0  0  0  0  0  0  0  0  0  0  0
   -1.2990    0.7500    0.0000 C   0  0  0  0  0  0  0  0  0  0  0  0
   -2.5981    0.0000    0.0000 Si  0  0  0  0  0  4  0  0  0  0  0  0
   -3.3481    1.2990    0.0000 Cl  0  0  0  0  0  0  0  0  0  0  0  0
   -1.8481   -1.2990    0.0000 C   0  0  0  0  0  0  0  0  0  0  0  0
   -2.5981   -2.5981    0.0000 C   0  0  0  0  0  0  0  0  0  0  0  0
   -1.8481   -3.8971    0.0000 C   0  0  0  0  0  0  0  0  0  0  0  0
   -1.0981   -5.1962    0.0000 F   0  0  0  0  0  0  0  0  0  0  0  0
   -3.1471   -4.6471    0.0000 F   0  0  0  0  0  0  0  0  0  0  0  0
   -0.5490   -3.1471    0.0000 F   0  0  0  0  0  0  0  0  0  0  0  0
   -3.8971   -0.7500    0.0000 C   0  0  0  0  0  0  0  0  0  0  0  0
   -3.8971   -2.2500    0.0000 C   0  0  0  0  0  0  0  0  0  0  0  0
   -5.1962   -3.0000    0.0000 C   0  0  0  0  0  0  0  0  0  0  0  0
   -4.4462   -4.2990    0.0000 F   0  0  0  0  0  0  0  0  0  0  0  0
   -5.9462   -1.7010    0.0000 F   0  0  0  0  0  0  0  0  0  0  0  0
   -6.4952   -3.7500    0.0000 C   0  0  0  0  0  0  0  0  0  0  0  0
   -7.2452   -2.4510    0.0000 F   0  0  0  0  0  0  0  0  0  0  0  0
   -5.7452   -5.0490    0.0000 F   0  0  0  0  0  0  0  0  0  0  0  0
   -7.7942   -4.5000    0.0000 C   0  0  0  0  0  0  0  0  0  0  0  0
   -9.0933   -5.2500    0.0000 F   0  0  0  0  0  0  0  0  0  0  0  0
   -7.0442   -5.7990    0.0000 F   0  0  0  0  0  0  0  0  0  0  0  0
   -8.5442   -3.2010    0.0000 F   0  0  0  0  0  0  0  0  0  0  0  0
  1  2  1  0
  2  3  1  0
  2  4  1  0
  2  5  1  0
  5  6  1  0
  6  7  1  0
  7  8  1  0
  7  9  1  0
  9 10  1  0
 10 11  1  0
 11 12  1  0
 11 13  1  0
 11 14  1  0
  7 15  1  0
 15 16  1  0
 16 17  1  0
 17 18  1  0
 17 19  1  0
 17 20  1  0
 20 21  1  0
 20 22  1  0
 20 23  1  0
 23 24  1  0
 23 25  1  0
 23 26  1  0
M  END
$$$$

     RDKit          2D

 22 21  0  0  0  0  0  0  0  0999 V2000
    0.0000    0.0000    0.0000 C   0  0  0  0  0  0  0  0  0  0  0  0
    1.2990    0.7500    0.0000 C   0  0  0  0  0  0  0  0  0  0  0  0
    2.5981   -0.0000    0.0000 Si  0  0  0  0  0  4  0  0  0  0  0  0
    3.8971   -0.7500    0.0000 C   0  0  0  0  0  0  0  0  0  0  0  0
    3.8971   -2.2500    0.0000 C   0  0  0  0  0  0  0  0  0  0  0  0
    3.3481    1.2990    0.0000 C   0  0  0  0  0  0  0  0  0  0  0  0
    4.8481    1.2990    0.0000 C   0  0  0  0  0  0  0  0  0  0  0  0
    5.5981    2.5981    0.0000 C   0  0  0  0  0  0  0  0  0  0  0  0
    6.8971    1.8481    0.0000 F   0  0  0  0  0  0  0  0  0  0  0  0
    4.2990    3.3481    0.0000 F   0  0  0  0  0  0  0  0  0  0  0  0
    6.3481    3.8971    0.0000 C   0  0  0  0  0  0  0  0  0  0  0  0
    5.0490    4.6471    0.0000 F   0  0  0  0  0  0  0  0  0  0  0  0
    7.6471    3.1471    0.0000 F   0  0  0  0  0  0  0  0  0  0  0  0
    7.0981    5.1962    0.0000 C   0  0  0  0  0  0  0  0  0  0  0  0
    8.3971    4.4462    0.0000 F   0  0  0  0  0  0  0  0  0  0  0  0
    5.7990    5.9462    0.0000 F   0  0  0  0  0  0  0  0  0  0  0  0
    7.8481    6.4952    0.0000 C   0  0  0  0  0  0  0  0  0  0  0  0
    8.5981    7.7942    0.0000 F   0  0  0  0  0  0  0  0  0  0  0  0
    6.5490    7.2452    0.0000 F   0  0  0  0  0  0  0  0  0  0  0  0
    9.1471    5.7452    0.0000 F   0  0  0  0  0  0  0  0  0  0  0  0
    1.8481   -1.2990    0.0000 O   0  0  0  0  0  0  0  0  0  0  0  0
    2.5981   -2.5981    0.0000 C   0  0  0  0  0  0  0  0  0  0  0  0
  1  2  1  0
  2  3  1  0
  3  4  1  0
  4  5  1  0
  3  6  1  0
  6  7  1  0
  7  8  1  0
  8  9  1  0
  8 10  1  0
  8 11  1  0
 11 12  1  0
 11 13  1  0
 11 14  1  0
 14 15  1  0
 14 16  1  0
 14 17  1  0
 17 18  1  0
 17 19  1  0
 17 20  1  0
  3 21  1  0
 21 22  1  0
M  END
$$$$

     RDKit          2D

 38 38  0  0  0  0  0  0  0  0999 V2000
    8.6628   -0.0561    0.0000 C   0  0  0  0  0  0  0  0  0  0  0  0
    9.1758    1.3535    0.0000 N   0  0  0  0  0  0  0  0  0  0  0  0
    9.6888    2.7630    0.0000 C   0  0  0  0  0  0  0  0  0  0  0  0
   10.5854    0.8404    0.0000 O   0  0  0  0  0  0  0  0  0  0  0  0
    7.7663    1.8665    0.0000 C   0  0  0  0  0  0  0  0  0  0  0  0
    6.6172    0.9023    0.0000 C   0  0  0  0  0  0  0  0  0  0  0  0
    5.2077    1.4153    0.0000 C   0  0  0  0  0  0  0  0  0  0  0  0
    4.0586    0.4512    0.0000 N   0  0  0  0  0  0  0  0  0  0  0  0
    2.6491    0.9642    0.0000 C   0  0  0  0  0  0  0  0  0  0  0  0
    2.5976    1.9470    0.0000 O   0  0  0  0  0  0  0  0  0  0  0  0
    1.5000    0.0000    0.0000 C   0  0  0  0  0  0  0  0  0  0  0  0
    2.6491   -0.9642    0.0000 F   0  0  0  0  0  0  0  0  0  0  0  0
    0.7500   -1.2990    0.0000 C   0  0  0  0  0  0  0  0  0  0  0  0
    2.1595   -1.8121    0.0000 F   0  0  0  0  0  0  0  0  0  0  0  0
    0.6864   -2.5124    0.0000 F   0  0  0  0  0  0  0  0  0  0  0  0
   -0.7500   -1.2990    0.0000 C   0  0  0  0  0  0  0  0  0  0  0  0
   -1.5000   -2.5981    0.0000 O   0  0  0  0  0  0  0  0  0  0  0  0
   -0.7500   -3.8971    0.0000 C   0  0  0  0  0  0  0  0  0  0  0  0
   -0.0000   -5.1962    0.0000 F   0  0  0  0  0  0  0  0  0  0  0  0
    0.3684   -3.4224    0.0000 F   0  0  0  0  0  0  0  0  0  0  0  0
   -2.0490   -4.6471    0.0000 F   0  0  0  0  0  0  0  0  0  0  0  0
   -1.5000    0.0000    0.0000 C   0  0  0  0  0  0  0  0  0  0  0  0
   -2.3286    0.8886    0.0000 F   0  0  0  0  0  0  0  0  0  0  0  0
   -2.6491   -0.9642    0.0000 O   0  0  0  0  0  0  0  0  0  0  0  0
   -4.0586   -0.4512    0.0000 C   0  0  0  0  0  0  0  0  0  0  0  0
   -5.4681    0.0619    0.0000 F   0  0  0  0  0  0  0  0  0  0  0  0
   -4.5716   -1.8607    0.0000 F   0  0  0  0  0  0  0  0  0  0  0  0
   -3.7212    1.0104    0.0000 F   0  0  0  0  0  0  0  0  0  0  0  0
   -0.7500    1.2990    0.0000 C   0  0  0  0  0  0  0  0  0  0  0  0
   -0.3947    2.4609    0.0000 F   0  0  0  0  0  0  0  0  0  0  0  0
   -2.1595    1.8121    0.0000 O   0  0  0  0  0  0  0  0  0  0  0  0
   -2.4200    3.2893    0.0000 C   0  0  0  0  0  0  0  0  0  0  0  0
   -2.6805    4.7665    0.0000 F   0  0  0  0  0  0  0  0  0  0  0  0
   -3.8972    3.0288    0.0000 F   0  0  0  0  0  0  0  0  0  0  0  0
   -0.9856    3.7279    0.0000 F   0  0  0  0  0  0  0  0  0  0  0  0
    0.7500    1.2990    0.0000 C   0  0  0  0  0  0  0  0  0  0  0  0
    0.5390    2.4956    0.0000 F   0  0  0  0  0  0  0  0  0  0  0  0
    1.6269    1.7459    0.0000 F   0  0  0  0  0  0  0  0  0  0  0  0
  1  2  1  0
  2  3  1  0
  2  4  1  0
  2  5  1  0
  5  6  1  0
  6  7  1  0
  7  8  1  0
  8  9  1  0
  9 10  2  0
  9 11  1  0
 11 12  1  0
 11 13  1  0
 13 14  1  0
 13 15  1  0
 13 16  1  0
 16 17  1  0
 17 18  1  0
 18 19  1  0
 18 20  1  0
 18 21  1  0
 16 22  1  0
 22 23  1  0
 22 24  1  0
 24 25  1  0
 25 26  1  0
 25 27  1  0
 25 28  1  0
 22 29  1  0
 29 30  1  0
 29 31  1  0
 31 32  1  0
 32 33  1  0
 32 34  1  0
 32 35  1  0
 29 36  1  0
 36 37  1  0
 36 38  1  0
 36 11  1  0
M  CHG  2   2   1   4  -1
M  END
$$$$

     RDKit          2D

 84 85  0  0  0  0  0  0  0  0999 V2000
   12.0000   -5.1962    0.0000 C   0  0  0  0  0  0  0  0  0  0  0  0
   10.5000   -5.1962    0.0000 C   0  0  0  0  0  0  0  0  0  0  0  0
    9.7500   -3.8971    0.0000 N   0  0  0  0  0  0  0  0  0  0  0  0
    8.2500   -3.8971    0.0000 C   0  0  0  0  0  0  0  0  0  0  0  0
    7.5000   -2.5981    0.0000 C   0  0  0  0  0  0  0  0  0  0  0  0
    6.0000   -2.5981    0.0000 O   0  0  0  0  0  0  0  0  0  0  0  0
    5.2500   -1.2990    0.0000 C   0  0  0  0  0  0  0  0  0  0  0  0
    6.0000    0.0000    0.0000 O   0  0  0  0  0  0  0  0  0  0  0  0
    3.7500   -1.2990    0.0000 N   0  0  0  0  0  0  0  0  0  0  0  0
    3.0000    0.0000    0.0000 C   0  0  0  0  0  0  0  0  0  0  0  0
    1.5000    0.0000    0.0000 C   0  0  0  0  0  0  0  0  0  0  0  0
    0.7500   -1.2990    0.0000 C   0  0  0  0  0  0  0  0  0  0  0  0
   -0.7500   -1.2990    0.0000 C   0  0  0  0  0  0  0  0  0  0  0  0
   -1.5000    0.0000    0.0000 C   0  0  0  0  0  0  0  0  0  0  0  0
   -0.7500    1.2990    0.0000 C   0  0  0  0  0  0  0  0  0  0  0  0
   -1.5000    2.5981    0.0000 N   0  0  0  0  0  0  0  0  0  0  0  0
   -0.7500    3.8971    0.0000 C   0  0  0  0  0  0  0  0  0  0  0  0
    0.7500    3.8971    0.0000 O   0  0  0  0  0  0  0  0  0  0  0  0
   -1.5000    5.1962    0.0000 N   0  0  0  0  0  0  0  0  0  0  0  0
   -0.7500    6.4952    0.0000 C   0  0  0  0  0  0  0  0  0  0  0  0
   -1.5000    7.7942    0.0000 C   0  0  0  0  0  0  0  0  0  0  0  0
   -0.7500    9.0933    0.0000 C   0  0  0  0  0  0  0  0  0  0  0  0
   -1.5000   10.3923    0.0000 C   0  0  0  0  0  0  0  0  0  0  0  0
   -3.0000   10.3923    0.0000 C   0  0  0  0  0  0  0  0  0  0  0  0
   -3.7500    9.0933    0.0000 C   0  0  0  0  0  0  0  0  0  0  0  0
   -5.2500    9.0933    0.0000 N   0  0  0  0  0  0  0  0  0  0  0  0
   -6.0000   10.3923    0.0000 C   0  0  0  0  0  0  0  0  0  0  0  0
   -5.2500   11.6913    0.0000 O   0  0  0  0  0  0  0  0  0  0  0  0
   -7.5000   10.3923    0.0000 N   0  0  0  0  0  0  0  0  0  0  0  0
   -8.2500   11.6913    0.0000 C   0  0  0  0  0  0  0  0  0  0  0  0
   -9.7500   11.6913    0.0000 C   0  0  0  0  0  0  0  0  0  0  0  0
  -10.5000   12.9904    0.0000 C   0  0  0  0  0  0  0  0  0  0  0  0
  -12.0000   12.9904    0.0000 C   0  0  0  0  0  0  0  0  0  0  0  0
  -12.7500   11.6913    0.0000 C   0  0  0  0  0  0  0  0  0  0  0  0
  -12.0000   10.3923    0.0000 C   0  0  0  0  0  0  0  0  0  0  0  0
  -12.7500    9.0933    0.0000 N   0  0  0  0  0  0  0  0  0  0  0  0
  -14.2500    9.0933    0.0000 C   0  0  0  0  0  0  0  0  0  0  0  0
  -15.0000   10.3923    0.0000 O   0  0  0  0  0  0  0  0  0  0  0  0
  -15.0000    7.7942    0.0000 O   0  0  0  0  0  0  0  0  0  0  0  0
  -16.5000    7.7942    0.0000 C   0  0  0  0  0  0  0  0  0  0  0  0
  -17.2500    6.4952    0.0000 C   0  0  0  0  0  0  0  0  0  0  0  0
  -18.7500    6.4952    0.0000 N   0  0  0  0  0  0  0  0  0  0  0  0
  -18.7500    4.9952    0.0000 C   0  0  0  0  0  0  0  0  0  0  0  0
  -18.7500    7.9952    0.0000 C   0  0  0  0  0  0  0  0  0  0  0  0
  -20.2500    6.4952    0.0000 C   0  0  0  0  0  0  0  0  0  0  0  0
  -21.0000    7.7942    0.0000 C   0  0  0  0  0  0  0  0  0  0  0  0
  -10.5000   10.3923    0.0000 C   0  0  0  0  0  0  0  0  0  0  0  0
   -3.0000    7.7942    0.0000 C   0  0  0  0  0  0  0  0  0  0  0  0
    0.7500    1.2990    0.0000 C   0  0  0  0  0  0  0  0  0  0  0  0
   10.5000   -2.5981    0.0000 S   0  0  0  0  0  0  0  0  0  0  0  0
    9.2010   -1.8481    0.0000 O   0  0  0  0  0  0  0  0  0  0  0  0
   11.1366   -3.0778    0.0000 O   0  0  0  0  0  0  0  0  0  0  0  0
   11.2500   -1.2990    0.0000 C   0  0  0  0  0  0  0  0  0  0  0  0
    9.9510   -0.5490    0.0000 F   0  0  0  0  0  0  0  0  0  0  0  0
   12.0000    0.0000    0.0000 F   0  0  0  0  0  0  0  0  0  0  0  0
   12.5490   -2.0490    0.0000 C   0  0  0  0  0  0  0  0  0  0  0  0
   12.2030   -2.8644    0.0000 F   0  0  0  0  0  0  0  0  0  0  0  0
   13.2990   -0.7500    0.0000 F   0  0  0  0  0  0  0  0  0  0  0  0
   13.8481   -2.7990    0.0000 C   0  0  0  0  0  0  0  0  0  0  0  0
   13.0981   -4.0981    0.0000 F   0  0  0  0  0  0  0  0  0  0  0  0
   14.5981   -1.5000    0.0000 F   0  0  0  0  0  0  0  0  0  0  0  0
   15.1471   -3.5490    0.0000 C   0  0  0  0  0  0  0  0  0  0  0  0
   14.3971   -4.8481    0.0000 F   0  0  0  0  0  0  0  0  0  0  0  0
   15.8971   -2.2500    0.0000 F   0  0  0  0  0  0  0  0  0  0  0  0
   16.4462   -4.2990    0.0000 C   0  0  0  0  0  0  0  0  0  0  0  0
   17.1962   -3.0000    0.0000 F   0  0  0  0  0  0  0  0  0  0  0  0
   15.6962   -5.5981    0.0000 F   0  0  0  0  0  0  0  0  0  0  0  0
   17.7452   -5.0490    0.0000 C   0  0  0  0  0  0  0  0  0  0  0  0
   18.4952   -3.7500    0.0000 F   0  0  0  0  0  0  0  0  0  0  0  0
   16.9952   -6.3481    0.0000 F   0  0  0  0  0  0  0  0  0  0  0  0
   19.0442   -5.7990    0.0000 C   0  0  0  0  0  0  0  0  0  0  0  0
   19.7942   -4.5000    0.0000 F   0  0  0  0  0  0  0  0  0  0  0  0
   18.2942   -7.0981    0.0000 F   0  0  0  0  0  0  0  0  0  0  0  0
   20.3433   -6.5490    0.0000 C   0  0  0  0  0  0  0  0  0  0  0  0
   21.6423   -7.2990    0.0000 F   0  0  0  0  0  0  0  0  0  0  0  0
   21.0933   -5.2500    0.0000 F   0  0  0  0  0  0  0  0  0  0  0  0
   19.5933   -7.8481    0.0000 F   0  0  0  0  0  0  0  0  0  0  0  0
    0.0000   14.5394    0.0000 C   0  0  0  0  0  0  0  0  0  0  0  0
    1.2990   15.2894    0.0000 C   0  0  0  0  0  0  0  0  0  0  0  0
    2.5981   14.5394    0.0000 O   0  0  0  0  0  0  0  0  0  0  0  0
    3.8971   15.2894    0.0000 S   0  0  0  0  0  0  0  0  0  0  0  0
    3.1471   16.5885    0.0000 O   0  0  0  0  0  0  0  0  0  0  0  0
    4.6471   13.9904    0.0000 O   0  0  0  0  0  0  0  0  0  0  0  0
    5.1962   16.0394    0.0000 O   0  0  0  0  0  0  0  0  0  0  0  0
  1  2  1  0
  2  3  1  0
  3  4  1  0
  4  5  1  0
  5  6  1  0
  6  7  1  0
  7  8  2  0
  7  9  1  0
  9 10  1  0
 10 11  1  0
 11 12  2  0
 12 13  1  0
 13 14  2  0
 14 15  1  0
 15 16  1  0
 16 17  1  0
 17 18  2  0
 17 19  1  0
 19 20  1  0
 20 21  1  0
 21 22  2  0
 22 23  1  0
 23 24  2  0
 24 25  1  0
 25 26  1  0
 26 27  1  0
 27 28  2  0
 27 29  1  0
 29 30  1  0
 30 31  1  0
 31 32  2  0
 32 33  1  0
 33 34  2  0
 34 35  1  0
 35 36  1  0
 36 37  1  0
 37 38  2  0
 37 39  1  0
 39 40  1  0
 40 41  1  0
 41 42  1  0
 42 43  1  0
 42 44  1  0
 42 45  1  0
 45 46  1  0
 35 47  2  0
 25 48  2  0
 15 49  2  0
  3 50  1  0
 50 51  2  0
 50 52  2  0
 50 53  1  0
 53 54  1  0
 53 55  1  0
 53 56  1  0
 56 57  1  0
 56 58  1  0
 56 59  1  0
 59 60  1  0
 59 61  1  0
 59 62  1  0
 62 63  1  0
 62 64  1  0
 62 65  1  0
 65 66  1  0
 65 67  1  0
 65 68  1  0
 68 69  1  0
 68 70  1  0
 68 71  1  0
 71 72  1  0
 71 73  1  0
 71 74  1  0
 74 75  1  0
 74 76  1  0
 74 77  1  0
 78 79  1  0
 79 80  1  0
 80 81  1  0
 81 82  2  0
 81 83  2  0
 81 84  1  0
 49 11  1  0
 48 21  1  0
 47 31  1  0
M  CHG  2  42   1  84  -1
M  END
$$$$

     RDKit          2D

 34 33  0  0  0  0  0  0  0  0999 V2000
    0.0000    0.0000    0.0000 C   0  0  0  0  0  0  0  0  0  0  0  0
    1.2990    0.7500    0.0000 N   0  0  0  0  0  0  0  0  0  0  0  0
    2.5981    1.5000    0.0000 C   0  0  0  0  0  0  0  0  0  0  0  0
    0.5490    2.0490    0.0000 O   0  0  0  0  0  0  0  0  0  0  0  0
    2.0490   -0.5490    0.0000 C   0  0  0  0  0  0  0  0  0  0  0  0
    3.5490   -0.5490    0.0000 C   0  0  0  0  0  0  0  0  0  0  0  0
    4.2990   -1.8481    0.0000 C   0  0  0  0  0  0  0  0  0  0  0  0
    5.5981   -1.0981    0.0000 F   0  0  0  0  0  0  0  0  0  0  0  0
    3.0000   -2.5981    0.0000 F   0  0  0  0  0  0  0  0  0  0  0  0
    5.0490   -3.1471    0.0000 C   0  0  0  0  0  0  0  0  0  0  0  0
    3.7500   -3.8971    0.0000 F   0  0  0  0  0  0  0  0  0  0  0  0
    6.3481   -2.3971    0.0000 F   0  0  0  0  0  0  0  0  0  0  0  0
    5.7990   -4.4462    0.0000 C   0  0  0  0  0  0  0  0  0  0  0  0
    7.0981   -3.6962    0.0000 F   0  0  0  0  0  0  0  0  0  0  0  0
    4.5000   -5.1962    0.0000 F   0  0  0  0  0  0  0  0  0  0  0  0
    6.5490   -5.7452    0.0000 C   0  0  0  0  0  0  0  0  0  0  0  0
    5.2500   -6.4952    0.0000 F   0  0  0  0  0  0  0  0  0  0  0  0
    7.8481   -4.9952    0.0000 F   0  0  0  0  0  0  0  0  0  0  0  0
    7.2990   -7.0442    0.0000 C   0  0  0  0  0  0  0  0  0  0  0  0
    8.5981   -6.2942    0.0000 F   0  0  0  0  0  0  0  0  0  0  0  0
    6.0000   -7.7942    0.0000 F   0  0  0  0  0  0  0  0  0  0  0  0
    8.0490   -8.3433    0.0000 C   0  0  0  0  0  0  0  0  0  0  0  0
    6.7500   -9.0933    0.0000 F   0  0  0  0  0  0  0  0  0  0  0  0
    9.3481   -7.5933    0.0000 F   0  0  0  0  0  0  0  0  0  0  0  0
    8.7990   -9.6423    0.0000 C   0  0  0  0  0  0  0  0  0  0  0  0
   10.0981   -8.8923    0.0000 F   0  0  0  0  0  0  0  0  0  0  0  0
    7.5000  -10.3923    0.0000 F   0  0  0  0  0  0  0  0  0  0  0  0
    9.5490  -10.9413    0.0000 C   0  0  0  0  0  0  0  0  0  0  0  0
    8.2500  -11.6913    0.0000 F   0  0  0  0  0  0  0  0  0  0  0  0
   10.8481  -10.1913    0.0000 F   0  0  0  0  0  0  0  0  0  0  0  0
   10.2990  -12.2404    0.0000 C   0  0  0  0  0  0  0  0  0  0  0  0
   11.0490  -13.5394    0.0000 F   0  0  0  0  0  0  0  0  0  0  0  0
   11.5981  -11.4904    0.0000 F   0  0  0  0  0  0  0  0  0  0  0  0
    9.0000  -12.9904    0.0000 F   0  0  0  0  0  0  0  0  0  0  0  0
  1  2  1  0
  2  3  1  0
  2  4  1  0
  2  5  1  0
  5  6  1  0
  6  7  1  0
  7  8  1  0
  7  9  1  0
  7 10  1  0
 10 11  1  0
 10 12  1  0
 10 13  1  0
 13 14  1  0
 13 15  1  0
 13 16  1  0
 16 17  1  0
 16 18  1  0
 16 19  1  0
 19 20  1  0
 19 21  1  0
 19 22  1  0
 22 23  1  0
 22 24  1  0
 22 25  1  0
 25 26  1  0
 25 27  1  0
 25 28  1  0
 28 29  1  0
 28 30  1  0
 28 31  1  0
 31 32  1  0
 31 33  1  0
 31 34  1  0
M  CHG  2   2   1   4  -1
M  END
$$$$

     RDKit          2D

 27 26  0  0  0  0  0  0  0  0999 V2000
    0.0000    0.0000    0.0000 C   0  0  0  0  0  0  0  0  0  0  0  0
    1.2990    0.7500    0.0000 O   0  0  0  0  0  0  0  0  0  0  0  0
    2.5981   -0.0000    0.0000 Si  0  0  0  0  0  4  0  0  0  0  0  0
    1.8481   -1.2990    0.0000 C   0  0  0  0  0  0  0  0  0  0  0  0
    2.5981   -2.5981    0.0000 C   0  0  0  0  0  0  0  0  0  0  0  0
    1.8481   -3.8971    0.0000 C   0  0  0  0  0  0  0  0  0  0  0  0
    1.0981   -5.1962    0.0000 F   0  0  0  0  0  0  0  0  0  0  0  0
    3.1471   -4.6471    0.0000 F   0  0  0  0  0  0  0  0  0  0  0  0
    0.5490   -3.1471    0.0000 F   0  0  0  0  0  0  0  0  0  0  0  0
    3.8971   -0.7500    0.0000 C   0  0  0  0  0  0  0  0  0  0  0  0
    3.8971   -2.2500    0.0000 C   0  0  0  0  0  0  0  0  0  0  0  0
    5.1962   -3.0000    0.0000 C   0  0  0  0  0  0  0  0  0  0  0  0
    6.4952   -3.7500    0.0000 F   0  0  0  0  0  0  0  0  0  0  0  0
    4.4462   -4.2990    0.0000 F   0  0  0  0  0  0  0  0  0  0  0  0
    5.9462   -1.7010    0.0000 F   0  0  0  0  0  0  0  0  0  0  0  0
    3.3481    1.2990    0.0000 C   0  0  0  0  0  0  0  0  0  0  0  0
    4.8481    1.2990    0.0000 C   0  0  0  0  0  0  0  0  0  0  0  0
    5.5981    2.5981    0.0000 C   0  0  0  0  0  0  0  0  0  0  0  0
    6.8971    1.8481    0.0000 F   0  0  0  0  0  0  0  0  0  0  0  0
    4.2990    3.3481    0.0000 F   0  0  0  0  0  0  0  0  0  0  0  0
    6.3481    3.8971    0.0000 C   0  0  0  0  0  0  0  0  0  0  0  0
    5.0490    4.6471    0.0000 F   0  0  0  0  0  0  0  0  0  0  0  0
    7.6471    3.1471    0.0000 F   0  0  0  0  0  0  0  0  0  0  0  0
    7.0981    5.1962    0.0000 C   0  0  0  0  0  0  0  0  0  0  0  0
    7.8481    6.4952    0.0000 F   0  0  0  0  0  0  0  0  0  0  0  0
    8.3971    4.4462    0.0000 F   0  0  0  0  0  0  0  0  0  0  0  0
    5.7990    5.9462    0.0000 F   0  0  0  0  0  0  0  0  0  0  0  0
  1  2  1  0
  2  3  1  0
  3  4  1  0
  4  5  1  0
  5  6  1  0
  6  7  1  0
  6  8  1  0
  6  9  1  0
  3 10  1  0
 10 11  1  0
 11 12  1  0
 12 13  1  0
 12 14  1  0
 12 15  1  0
  3 16  1  0
 16 17  1  0
 17 18  1  0
 18 19  1  0
 18 20  1  0
 18 21  1  0
 21 22  1  0
 21 23  1  0
 21 24  1  0
 24 25  1  0
 24 26  1  0
 24 27  1  0
M  END
$$$$

     RDKit          2D

 21 20  0  0  0  0  0  0  0  0999 V2000
    0.0000    0.0000    0.0000 C   0  0  0  0  0  0  0  0  0  0  0  0
    1.2990    0.7500    0.0000 C   0  0  0  0  0  0  0  0  0  0  0  0
    2.5981   -0.0000    0.0000 O   0  0  0  0  0  0  0  0  0  0  0  0
    3.8971    0.7500    0.0000 Si  0  0  0  0  0  4  0  0  0  0  0  0
    4.6471   -0.5490    0.0000 C   0  0  0  0  0  0  0  0  0  0  0  0
    3.1471    2.0490    0.0000 C   0  0  0  0  0  0  0  0  0  0  0  0
    5.1962    1.5000    0.0000 C   0  0  0  0  0  0  0  0  0  0  0  0
    5.1962    3.0000    0.0000 C   0  0  0  0  0  0  0  0  0  0  0  0
    6.4952    3.7500    0.0000 C   0  0  0  0  0  0  0  0  0  0  0  0
    5.7452    5.0490    0.0000 F   0  0  0  0  0  0  0  0  0  0  0  0
    7.2452    2.4510    0.0000 F   0  0  0  0  0  0  0  0  0  0  0  0
    7.7942    4.5000    0.0000 C   0  0  0  0  0  0  0  0  0  0  0  0
    8.5442    3.2010    0.0000 F   0  0  0  0  0  0  0  0  0  0  0  0
    7.0442    5.7990    0.0000 F   0  0  0  0  0  0  0  0  0  0  0  0
    9.0933    5.2500    0.0000 C   0  0  0  0  0  0  0  0  0  0  0  0
    8.3433    6.5490    0.0000 F   0  0  0  0  0  0  0  0  0  0  0  0
    9.8433    3.9510    0.0000 F   0  0  0  0  0  0  0  0  0  0  0  0
   10.3923    6.0000    0.0000 C   0  0  0  0  0  0  0  0  0  0  0  0
   11.6913    6.7500    0.0000 F   0  0  0  0  0  0  0  0  0  0  0  0
   11.1423    4.7010    0.0000 F   0  0  0  0  0  0  0  0  0  0  0  0
    9.6423    7.2990    0.0000 F   0  0  0  0  0  0  0  0  0  0  0  0
  1  2  1  0
  2  3  1  0
  3  4  1  0
  4  5  1  0
  4  6  1  0
  4  7  1  0
  7  8  1  0
  8  9  1  0
  9 10  1  0
  9 11  1  0
  9 12  1  0
 12 13  1  0
 12 14  1  0
 12 15  1  0
 15 16  1  0
 15 17  1  0
 15 18  1  0
 18 19  1  0
 18 20  1  0
 18 21  1  0
M  END
$$$$

     RDKit          2D

 66 65  0  0  0  0  0  0  0  0999 V2000
    0.0000    0.0000    0.0000 C   0  0  0  0  0  0  0  0  0  0  0  0
    1.2990    0.7500    0.0000 C   0  0  0  0  0  0  0  0  0  0  0  0
    2.5981   -0.0000    0.0000 C   0  0  0  0  0  0  0  0  0  0  0  0
    3.8971    0.7500    0.0000 C   0  0  0  0  0  0  0  0  0  0  0  0
    5.1962   -0.0000    0.0000 O   0  0  0  0  0  0  0  0  0  0  0  0
    6.4952    0.7500    0.0000 C   0  0  0  0  0  0  0  0  0  0  0  0
    7.7942   -0.0000    0.0000 C   0  0  0  0  0  0  0  0  0  0  0  0
    9.0933    0.7500    0.0000 O   0  0  0  0  0  0  0  0  0  0  0  0
   10.3923   -0.0000    0.0000 C   0  0  0  0  0  0  0  0  0  0  0  0
   11.6913    0.7500    0.0000 C   0  0  0  0  0  0  0  0  0  0  0  0
   12.9904   -0.0000    0.0000 O   0  0  0  0  0  0  0  0  0  0  0  0
   14.2894    0.7500    0.0000 C   0  0  0  0  0  0  0  0  0  0  0  0
   15.5885   -0.0000    0.0000 C   0  0  0  0  0  0  0  0  0  0  0  0
   16.8875    0.7500    0.0000 O   0  0  0  0  0  0  0  0  0  0  0  0
   18.1865   -0.0000    0.0000 C   0  0  0  0  0  0  0  0  0  0  0  0
   19.4856    0.7500    0.0000 C   0  0  0  0  0  0  0  0  0  0  0  0
   20.7846   -0.0000    0.0000 O   0  0  0  0  0  0  0  0  0  0  0  0
   22.0836    0.7500    0.0000 C   0  0  0  0  0  0  0  0  0  0  0  0
   23.3827   -0.0000    0.0000 C   0  0  0  0  0  0  0  0  0  0  0  0
   24.6817    0.7500    0.0000 O   0  0  0  0  0  0  0  0  0  0  0  0
   25.9808   -0.0000    0.0000 C   0  0  0  0  0  0  0  0  0  0  0  0
   27.2798    0.7500    0.0000 C   0  0  0  0  0  0  0  0  0  0  0  0
   28.5788   -0.0000    0.0000 O   0  0  0  0  0  0  0  0  0  0  0  0
   29.8779    0.7500    0.0000 C   0  0  0  0  0  0  0  0  0  0  0  0
   31.1769   -0.0000    0.0000 C   0  0  0  0  0  0  0  0  0  0  0  0
   32.4760    0.7500    0.0000 O   0  0  0  0  0  0  0  0  0  0  0  0
   33.7750   -0.0000    0.0000 C   0  0  0  0  0  0  0  0  0  0  0  0
   35.0740    0.7500    0.0000 C   0  0  0  0  0  0  0  0  0  0  0  0
   36.3731   -0.0000    0.0000 O   0  0  0  0  0  0  0  0  0  0  0  0
   37.6721    0.7500    0.0000 C   0  0  0  0  0  0  0  0  0  0  0  0
   38.9711   -0.0000    0.0000 C   0  0  0  0  0  0  0  0  0  0  0  0
   40.2702    0.7500    0.0000 O   0  0  0  0  0  0  0  0  0  0  0  0
   41.5692   -0.0000    0.0000 C   0  0  0  0  0  0  0  0  0  0  0  0
   42.8683    0.7500    0.0000 C   0  0  0  0  0  0  0  0  0  0  0  0
   44.1673   -0.0000    0.0000 O   0  0  0  0  0  0  0  0  0  0  0  0
   45.4663    0.7500    0.0000 C   0  0  0  0  0  0  0  0  0  0  0  0
   45.4663    2.2500    0.0000 O   0  0  0  0  0  0  0  0  0  0  0  0
   46.7654   -0.0000    0.0000 N   0  0  0  0  0  0  0  0  0  0  0  0
   48.0644    0.7500    0.0000 S   0  0  0  0  0  0  0  0  0  0  0  0
   47.3144    2.0490    0.0000 O   0  0  0  0  0  0  0  0  0  0  0  0
   48.3759    0.0162    0.0000 O   0  0  0  0  0  0  0  0  0  0  0  0
   49.3634    1.5000    0.0000 C   0  0  0  0  0  0  0  0  0  0  0  0
   48.6134    2.7990    0.0000 F   0  0  0  0  0  0  0  0  0  0  0  0
   50.6625    2.2500    0.0000 F   0  0  0  0  0  0  0  0  0  0  0  0
   50.1134    0.2010    0.0000 C   0  0  0  0  0  0  0  0  0  0  0  0
   49.4061   -0.3321    0.0000 F   0  0  0  0  0  0  0  0  0  0  0  0
   51.4125    0.9510    0.0000 F   0  0  0  0  0  0  0  0  0  0  0  0
   50.8634   -1.0981    0.0000 C   0  0  0  0  0  0  0  0  0  0  0  0
   49.5644   -1.8481    0.0000 F   0  0  0  0  0  0  0  0  0  0  0  0
   52.1625   -0.3481    0.0000 F   0  0  0  0  0  0  0  0  0  0  0  0
   51.6134   -2.3971    0.0000 C   0  0  0  0  0  0  0  0  0  0  0  0
   50.3144   -3.1471    0.0000 F   0  0  0  0  0  0  0  0  0  0  0  0
   52.9125   -1.6471    0.0000 F   0  0  0  0  0  0  0  0  0  0  0  0
   52.3634   -3.6962    0.0000 C   0  0  0  0  0  0  0  0  0  0  0  0
   51.0644   -4.4462    0.0000 F   0  0  0  0  0  0  0  0  0  0  0  0
   53.6625   -2.9462    0.0000 F   0  0  0  0  0  0  0  0  0  0  0  0
   53.1134   -4.9952    0.0000 C   0  0  0  0  0  0  0  0  0  0  0  0
   54.4125   -4.2452    0.0000 F   0  0  0  0  0  0  0  0  0  0  0  0
   51.8144   -5.7452    0.0000 F   0  0  0  0  0  0  0  0  0  0  0  0
   53.8634   -6.2942    0.0000 C   0  0  0  0  0  0  0  0  0  0  0  0
   52.5644   -7.0442    0.0000 F   0  0  0  0  0  0  0  0  0  0  0  0
   55.1625   -5.5442    0.0000 F   0  0  0  0  0  0  0  0  0  0  0  0
   54.6134   -7.5933    0.0000 C   0  0  0  0  0  0  0  0  0  0  0  0
   55.3634   -8.8923    0.0000 F   0  0  0  0  0  0  0  0  0  0  0  0
   55.9125   -6.8433    0.0000 F   0  0  0  0  0  0  0  0  0  0  0  0
   53.3144   -8.3433    0.0000 F   0  0  0  0  0  0  0  0  0  0  0  0
  1  2  1  0
  2  3  1  0
  3  4  1  0
  4  5  1  0
  5  6  1  0
  6  7  1  0
  7  8  1  0
  8  9  1  0
  9 10  1  0
 10 11  1  0
 11 12  1  0
 12 13  1  0
 13 14  1  0
 14 15  1  0
 15 16  1  0
 16 17  1  0
 17 18  1  0
 18 19  1  0
 19 20  1  0
 20 21  1  0
 21 22  1  0
 22 23  1  0
 23 24  1  0
 24 25  1  0
 25 26  1  0
 26 27  1  0
 27 28  1  0
 28 29  1  0
 29 30  1  0
 30 31  1  0
 31 32  1  0
 32 33  1  0
 33 34  1  0
 34 35  1  0
 35 36  1  0
 36 37  2  0
 36 38  1  0
 38 39  1  0
 39 40  2  0
 39 41  2  0
 39 42  1  0
 42 43  1  0
 42 44  1  0
 42 45  1  0
 45 46  1  0
 45 47  1  0
 45 48  1  0
 48 49  1  0
 48 50  1  0
 48 51  1  0
 51 52  1  0
 51 53  1  0
 51 54  1  0
 54 55  1  0
 54 56  1  0
 54 57  1  0
 57 58  1  0
 57 59  1  0
 57 60  1  0
 60 61  1  0
 60 62  1  0
 60 63  1  0
 63 64  1  0
 63 65  1  0
 63 66  1  0
M  END
$$$$

     RDKit          2D

 17 16  0  0  0  0  0  0  0  0999 V2000
    0.0000    0.0000    0.0000 C   0  0  0  0  0  0  0  0  0  0  0  0
    1.2990    0.7500    0.0000 C   0  0  0  0  0  0  0  0  0  0  0  0
    2.5981   -0.0000    0.0000 C   0  0  0  0  0  0  0  0  0  0  0  0
    3.8971    0.7500    0.0000 C   0  0  0  0  0  0  0  0  0  0  0  0
    5.1962   -0.0000    0.0000 C   0  0  0  0  0  0  0  0  0  0  0  0
    6.4952    0.7500    0.0000 C   0  0  0  0  0  0  0  0  0  0  0  0
    7.7942   -0.0000    0.0000 C   0  0  0  0  0  0  0  0  0  0  0  0
    9.0933    0.7500    0.0000 C   0  0  0  0  0  0  0  0  0  0  0  0
   10.3923   -0.0000    0.0000 C   0  0  0  0  0  0  0  0  0  0  0  0
   11.6913    0.7500    0.0000 C   0  0  0  0  0  0  0  0  0  0  0  0
   12.9904   -0.0000    0.0000 C   0  0  0  0  0  0  0  0  0  0  0  0
   13.7404    1.2990    0.0000 F   0  0  0  0  0  0  0  0  0  0  0  0
   12.2404   -1.2990    0.0000 F   0  0  0  0  0  0  0  0  0  0  0  0
   14.2894   -0.7500    0.0000 C   0  0  0  0  0  0  0  0  0  0  0  0
   15.5885   -1.5000    0.0000 F   0  0  0  0  0  0  0  0  0  0  0  0
   13.5394   -2.0490    0.0000 F   0  0  0  0  0  0  0  0  0  0  0  0
   15.0394    0.5490    0.0000 F   0  0  0  0  0  0  0  0  0  0  0  0
  1  2  1  0
  2  3  1  0
  3  4  1  0
  4  5  1  0
  5  6  1  0
  6  7  1  0
  7  8  1  0
  8  9  1  0
  9 10  1  0
 10 11  1  0
 11 12  1  0
 11 13  1  0
 11 14  1  0
 14 15  1  0
 14 16  1  0
 14 17  1  0
M  END
$$$$

     RDKit          2D

 23 24  0  0  0  0  0  0  0  0999 V2000
    7.5000   -2.5981    0.0000 F   0  0  0  0  0  0  0  0  0  0  0  0
    6.7500   -3.8971    0.0000 C   0  0  0  0  0  0  0  0  0  0  0  0
    7.5000   -5.1962    0.0000 F   0  0  0  0  0  0  0  0  0  0  0  0
    5.2500   -3.8971    0.0000 C   0  0  0  0  0  0  0  0  0  0  0  0
    5.2500   -2.3971    0.0000 F   0  0  0  0  0  0  0  0  0  0  0  0
    5.2500   -5.3971    0.0000 F   0  0  0  0  0  0  0  0  0  0  0  0
    3.7500   -3.8971    0.0000 O   0  0  0  0  0  0  0  0  0  0  0  0
    3.0000   -2.5981    0.0000 C   0  0  0  0  0  0  0  0  0  0  0  0
    1.5000   -2.5981    0.0000 C   0  0  0  0  0  0  0  0  0  0  0  0
    0.7500   -3.8971    0.0000 C   0  0  0  0  0  0  0  0  0  0  0  0
    1.5000   -5.1962    0.0000 N   0  0  0  0  0  0  0  0  0  0  0  0
    2.9918   -5.3529    0.0000 C   0  0  0  0  0  0  0  0  0  0  0  0
    3.3037   -6.8202    0.0000 N   0  0  0  0  0  0  0  0  0  0  0  0
    2.0046   -7.5702    0.0000 C   0  0  0  0  0  0  0  0  0  0  0  0
    0.8899   -6.5665    0.0000 N   0  0  0  0  0  0  0  0  0  0  0  0
    0.7500   -1.2990    0.0000 C   0  0  0  0  0  0  0  0  0  0  0  0
    1.5000    0.0000    0.0000 C   0  0  0  0  0  0  0  0  0  0  0  0
    0.7500    1.2990    0.0000 C   0  0  0  0  0  0  0  0  0  0  0  0
   -0.7500    1.2990    0.0000 C   0  0  0  0  0  0  0  0  0  0  0  0
   -1.5000    2.5981    0.0000 Cl  0  0  0  0  0  0  0  0  0  0  0  0
   -1.5000    0.0000    0.0000 C   0  0  0  0  0  0  0  0  0  0  0  0
   -0.7500   -1.2990    0.0000 C   0  0  0  0  0  0  0  0  0  0  0  0
   -1.5000   -2.5981    0.0000 Cl  0  0  0  0  0  0  0  0  0  0  0  0
  1  2  1  0
  2  3  1  0
  2  4  1  0
  4  5  1  0
  4  6  1  0
  4  7  1  0
  7  8  1  0
  9  8  1  1
  9 10  1  0
 10 11  1  0
 11 12  1  0
 12 13  2  0
 13 14  1  0
 14 15  2  0
  9 16  1  0
 16 17  2  0
 17 18  1  0
 18 19  2  0
 19 20  1  0
 19 21  1  0
 21 22  2  0
 22 23  1  0
 15 11  1  0
 22 16  1  0
M  END
$$$$

     RDKit          2D

 28 27  0  0  0  0  0  0  0  0999 V2000
   -0.0000   -1.5000    0.0000 O   0  0  0  0  0  0  0  0  0  0  0  0
    0.0000    0.0000    0.0000 C   0  0  0  0  0  0  0  0  0  0  0  0
   -1.2990    0.7500    0.0000 O   0  0  0  0  0  0  0  0  0  0  0  0
    1.2990    0.7500    0.0000 C   0  0  0  0  0  0  0  0  0  0  0  0
    2.0490   -0.5490    0.0000 F   0  0  0  0  0  0  0  0  0  0  0  0
    0.5490    2.0490    0.0000 F   0  0  0  0  0  0  0  0  0  0  0  0
    2.5981    1.5000    0.0000 O   0  0  0  0  0  0  0  0  0  0  0  0
    2.5981    3.0000    0.0000 C   0  0  0  0  0  0  0  0  0  0  0  0
    1.0981    3.0000    0.0000 F   0  0  0  0  0  0  0  0  0  0  0  0
    4.0981    3.0000    0.0000 F   0  0  0  0  0  0  0  0  0  0  0  0
    2.5981    4.5000    0.0000 C   0  0  0  0  0  0  0  0  0  0  0  0
    1.0981    4.5000    0.0000 F   0  0  0  0  0  0  0  0  0  0  0  0
    4.0981    4.5000    0.0000 F   0  0  0  0  0  0  0  0  0  0  0  0
    2.5981    6.0000    0.0000 O   0  0  0  0  0  0  0  0  0  0  0  0
    3.8971    6.7500    0.0000 C   0  0  0  0  0  0  0  0  0  0  0  0
    4.6471    5.4510    0.0000 F   0  0  0  0  0  0  0  0  0  0  0  0
    3.1471    8.0490    0.0000 F   0  0  0  0  0  0  0  0  0  0  0  0
    5.1962    7.5000    0.0000 C   0  0  0  0  0  0  0  0  0  0  0  0
    5.9462    6.2010    0.0000 F   0  0  0  0  0  0  0  0  0  0  0  0
    4.4462    8.7990    0.0000 F   0  0  0  0  0  0  0  0  0  0  0  0
    6.4952    8.2500    0.0000 O   0  0  0  0  0  0  0  0  0  0  0  0
    6.4952    9.7500    0.0000 C   0  0  0  0  0  0  0  0  0  0  0  0
    4.9952    9.7500    0.0000 F   0  0  0  0  0  0  0  0  0  0  0  0
    7.9952    9.7500    0.0000 F   0  0  0  0  0  0  0  0  0  0  0  0
    6.4952   11.2500    0.0000 C   0  0  0  0  0  0  0  0  0  0  0  0
    6.4952   12.7500    0.0000 F   0  0  0  0  0  0  0  0  0  0  0  0
    4.9952   11.2500    0.0000 F   0  0  0  0  0  0  0  0  0  0  0  0
    7.9952   11.2500    0.0000 F   0  0  0  0  0  0  0  0  0  0  0  0
  1  2  2  0
  2  3  1  0
  2  4  1  0
  4  5  1  0
  4  6  1  0
  4  7  1  0
  7  8  1  0
  8  9  1  0
  8 10  1  0
  8 11  1  0
 11 12  1  0
 11 13  1  0
 11 14  1  0
 14 15  1  0
 15 16  1  0
 15 17  1  0
 15 18  1  0
 18 19  1  0
 18 20  1  0
 18 21  1  0
 21 22  1  0
 22 23  1  0
 22 24  1  0
 22 25  1  0
 25 26  1  0
 25 27  1  0
 25 28  1  0
M  END
$$$$

     RDKit          2D

 33 32  0  0  0  0  0  0  0  0999 V2000
    0.0000    0.0000    0.0000 C   0  0  0  0  0  0  0  0  0  0  0  0
    1.2990    0.7500    0.0000 N   0  0  0  0  0  0  0  0  0  0  0  0
    2.5981   -0.0000    0.0000 C   0  0  0  0  0  0  0  0  0  0  0  0
    3.8971    0.7500    0.0000 C   0  0  0  0  0  0  0  0  0  0  0  0
    5.1962   -0.0000    0.0000 C   0  0  0  0  0  0  0  0  0  0  0  0
    6.4952    0.7500    0.0000 N   0  0  0  0  0  0  0  0  0  0  0  0
    5.7452    2.0490    0.0000 C   0  0  0  0  0  0  0  0  0  0  0  0
    7.2452   -0.5490    0.0000 C   0  0  0  0  0  0  0  0  0  0  0  0
    7.7942    1.5000    0.0000 O   0  0  0  0  0  0  0  0  0  0  0  0
    1.2990    2.2500    0.0000 S   0  0  0  0  0  0  0  0  0  0  0  0
   -0.2010    2.2500    0.0000 O   0  0  0  0  0  0  0  0  0  0  0  0
    2.7990    2.2500    0.0000 O   0  0  0  0  0  0  0  0  0  0  0  0
    1.2990    3.7500    0.0000 C   0  0  0  0  0  0  0  0  0  0  0  0
    0.0000    4.5000    0.0000 C   0  0  0  0  0  0  0  0  0  0  0  0
    0.0000    6.0000    0.0000 C   0  0  0  0  0  0  0  0  0  0  0  0
   -1.5000    6.0000    0.0000 F   0  0  0  0  0  0  0  0  0  0  0  0
    1.5000    6.0000    0.0000 F   0  0  0  0  0  0  0  0  0  0  0  0
    0.0000    7.5000    0.0000 C   0  0  0  0  0  0  0  0  0  0  0  0
    1.5000    7.5000    0.0000 F   0  0  0  0  0  0  0  0  0  0  0  0
   -1.5000    7.5000    0.0000 F   0  0  0  0  0  0  0  0  0  0  0  0
    0.0000    9.0000    0.0000 C   0  0  0  0  0  0  0  0  0  0  0  0
   -1.5000    9.0000    0.0000 F   0  0  0  0  0  0  0  0  0  0  0  0
    1.5000    9.0000    0.0000 F   0  0  0  0  0  0  0  0  0  0  0  0
    0.0000   10.5000    0.0000 C   0  0  0  0  0  0  0  0  0  0  0  0
    1.5000   10.5000    0.0000 F   0  0  0  0  0  0  0  0  0  0  0  0
   -1.5000   10.5000    0.0000 F   0  0  0  0  0  0  0  0  0  0  0  0
    0.0000   12.0000    0.0000 C   0  0  0  0  0  0  0  0  0  0  0  0
   -1.5000   12.0000    0.0000 F   0  0  0  0  0  0  0  0  0  0  0  0
    1.5000   12.0000    0.0000 F   0  0  0  0  0  0  0  0  0  0  0  0
    0.0000   13.5000    0.0000 C   0  0  0  0  0  0  0  0  0  0  0  0
    0.0000   15.0000    0.0000 F   0  0  0  0  0  0  0  0  0  0  0  0
    1.5000   13.5000    0.0000 F   0  0  0  0  0  0  0  0  0  0  0  0
   -1.5000   13.5000    0.0000 F   0  0  0  0  0  0  0  0  0  0  0  0
  1  2  1  0
  2  3  1  0
  3  4  1  0
  4  5  1  0
  5  6  1  0
  6  7  1  0
  6  8  1  0
  6  9  1  0
  2 10  1  0
 10 11  2  0
 10 12  2  0
 10 13  1  0
 13 14  1  0
 14 15  1  0
 15 16  1  0
 15 17  1  0
 15 18  1  0
 18 19  1  0
 18 20  1  0
 18 21  1  0
 21 22  1  0
 21 23  1  0
 21 24  1  0
 24 25  1  0
 24 26  1  0
 24 27  1  0
 27 28  1  0
 27 29  1  0
 27 30  1  0
 30 31  1  0
 30 32  1  0
 30 33  1  0
M  CHG  2   6   1   9  -1
M  END
$$$$

     RDKit          2D

 34 32  0  0  0  0  0  0  0  0999 V2000
    2.3971   -8.2500    0.0000 O   0  0  0  0  0  0  0  0  0  0  0  0
    3.8971   -8.2500    0.0000 S   0  0  0  0  0  0  0  0  0  0  0  0
    5.3971   -8.2500    0.0000 O   0  0  0  0  0  0  0  0  0  0  0  0
    3.8971   -9.7500    0.0000 O   0  0  0  0  0  0  0  0  0  0  0  0
    3.8971   -6.7500    0.0000 C   0  0  0  0  0  0  0  0  0  0  0  0
    5.1962   -6.0000    0.0000 C   0  0  0  0  0  0  0  0  0  0  0  0
    5.1962   -4.5000    0.0000 N   0  0  0  0  0  0  0  0  0  0  0  0
    6.4952   -3.7500    0.0000 C   0  0  0  0  0  0  0  0  0  0  0  0
    6.4952   -2.2500    0.0000 C   0  0  0  0  0  0  0  0  0  0  0  0
    7.7942   -1.5000    0.0000 C   0  0  0  0  0  0  0  0  0  0  0  0
    7.7942    0.0000    0.0000 N   0  0  0  0  0  0  0  0  0  0  0  0
    9.0933    0.7500    0.0000 S   0  0  0  0  0  0  0  0  0  0  0  0
    9.8433   -0.5490    0.0000 O   0  0  0  0  0  0  0  0  0  0  0  0
    8.6135    1.3866    0.0000 O   0  0  0  0  0  0  0  0  0  0  0  0
   10.3923    1.5000    0.0000 C   0  0  0  0  0  0  0  0  0  0  0  0
   11.1423    0.2010    0.0000 F   0  0  0  0  0  0  0  0  0  0  0  0
   11.6913    2.2500    0.0000 F   0  0  0  0  0  0  0  0  0  0  0  0
    9.6423    2.7990    0.0000 C   0  0  0  0  0  0  0  0  0  0  0  0
    8.8270    2.4530    0.0000 F   0  0  0  0  0  0  0  0  0  0  0  0
   10.9413    3.5490    0.0000 F   0  0  0  0  0  0  0  0  0  0  0  0
    8.8923    4.0981    0.0000 C   0  0  0  0  0  0  0  0  0  0  0  0
    7.5933    3.3481    0.0000 F   0  0  0  0  0  0  0  0  0  0  0  0
   10.1913    4.8481    0.0000 F   0  0  0  0  0  0  0  0  0  0  0  0
    8.1423    5.3971    0.0000 C   0  0  0  0  0  0  0  0  0  0  0  0
    6.8433    4.6471    0.0000 F   0  0  0  0  0  0  0  0  0  0  0  0
    9.4413    6.1471    0.0000 F   0  0  0  0  0  0  0  0  0  0  0  0
    7.3923    6.6962    0.0000 C   0  0  0  0  0  0  0  0  0  0  0  0
    8.6913    7.4462    0.0000 F   0  0  0  0  0  0  0  0  0  0  0  0
    6.0933    5.9462    0.0000 F   0  0  0  0  0  0  0  0  0  0  0  0
    6.6423    7.9952    0.0000 C   0  0  0  0  0  0  0  0  0  0  0  0
    5.8923    9.2942    0.0000 F   0  0  0  0  0  0  0  0  0  0  0  0
    5.3433    7.2452    0.0000 F   0  0  0  0  0  0  0  0  0  0  0  0
    7.9413    8.7452    0.0000 F   0  0  0  0  0  0  0  0  0  0  0  0
   12.6913    0.0000    0.0000 Na  0  0  0  0  0 15  0  0  0  0  0  0
  1  2  2  0
  2  3  2  0
  2  4  1  0
  2  5  1  0
  5  6  1  0
  6  7  1  0
  7  8  1  0
  8  9  1  0
  9 10  1  0
 10 11  1  0
 11 12  1  0
 12 13  2  0
 12 14  2  0
 12 15  1  0
 15 16  1  0
 15 17  1  0
 15 18  1  0
 18 19  1  0
 18 20  1  0
 18 21  1  0
 21 22  1  0
 21 23  1  0
 21 24  1  0
 24 25  1  0
 24 26  1  0
 24 27  1  0
 27 28  1  0
 27 29  1  0
 27 30  1  0
 30 31  1  0
 30 32  1  0
 30 33  1  0
M  CHG  2   4  -1  34   1
M  END
$$$$

     RDKit          2D

 21 20  0  0  0  0  0  0  0  0999 V2000
    2.5981   -4.5000    0.0000 C   0  0  0  0  0  0  0  0  0  0  0  0
    3.8971   -3.7500    0.0000 C   0  0  0  0  0  0  0  0  0  0  0  0
    3.8971   -2.2500    0.0000 C   0  0  0  0  0  0  0  0  0  0  0  0
    5.1962   -1.5000    0.0000 C   0  0  0  0  0  0  0  0  0  0  0  0
    5.1962    0.0000    0.0000 N   0  0  0  0  0  0  0  0  0  0  0  0
    6.4952    0.7500    0.0000 S   0  0  0  0  0  0  0  0  0  0  0  0
    7.2452   -0.5490    0.0000 O   0  0  0  0  0  0  0  0  0  0  0  0
    6.0154    1.3866    0.0000 O   0  0  0  0  0  0  0  0  0  0  0  0
    7.7942    1.5000    0.0000 C   0  0  0  0  0  0  0  0  0  0  0  0
    8.5442    0.2010    0.0000 F   0  0  0  0  0  0  0  0  0  0  0  0
    9.0933    2.2500    0.0000 F   0  0  0  0  0  0  0  0  0  0  0  0
    7.0442    2.7990    0.0000 C   0  0  0  0  0  0  0  0  0  0  0  0
    6.2289    2.4530    0.0000 F   0  0  0  0  0  0  0  0  0  0  0  0
    8.3433    3.5490    0.0000 F   0  0  0  0  0  0  0  0  0  0  0  0
    6.2942    4.0981    0.0000 C   0  0  0  0  0  0  0  0  0  0  0  0
    7.5933    4.8481    0.0000 F   0  0  0  0  0  0  0  0  0  0  0  0
    4.9952    3.3481    0.0000 F   0  0  0  0  0  0  0  0  0  0  0  0
    5.5442    5.3971    0.0000 C   0  0  0  0  0  0  0  0  0  0  0  0
    4.7942    6.6962    0.0000 F   0  0  0  0  0  0  0  0  0  0  0  0
    4.2452    4.6471    0.0000 F   0  0  0  0  0  0  0  0  0  0  0  0
    6.8433    6.1471    0.0000 F   0  0  0  0  0  0  0  0  0  0  0  0
  1  2  1  0
  2  3  1  0
  3  4  1  0
  4  5  1  0
  5  6  1  0
  6  7  2  0
  6  8  2  0
  6  9  1  0
  9 10  1  0
  9 11  1  0
  9 12  1  0
 12 13  1  0
 12 14  1  0
 12 15  1  0
 15 16  1  0
 15 17  1  0
 15 18  1  0
 18 19  1  0
 18 20  1  0
 18 21  1  0
M  END
$$$$

     RDKit          2D

 27 25  0  0  0  0  0  0  0  0999 V2000
    0.0000    0.0000    0.0000 C   0  0  0  0  0  0  0  0  0  0  0  0
    1.2990    0.7500    0.0000 N   0  0  0  0  0  0  0  0  0  0  0  0
    2.5981   -0.0000    0.0000 C   0  0  0  0  0  0  0  0  0  0  0  0
    3.8971    0.7500    0.0000 C   0  0  0  0  0  0  0  0  0  0  0  0
    3.8971    2.2500    0.0000 O   0  0  0  0  0  0  0  0  0  0  0  0
    5.1962    0.0000    0.0000 C   0  0  0  0  0  0  0  0  0  0  0  0
    6.4952    0.7500    0.0000 S   0  0  0  0  0  0  0  0  0  0  0  0
    7.2452   -0.5490    0.0000 O   0  0  0  0  0  0  0  0  0  0  0  0
    5.7452    2.0490    0.0000 O   0  0  0  0  0  0  0  0  0  0  0  0
    7.7942    1.5000    0.0000 O   0  0  0  0  0  0  0  0  0  0  0  0
    1.2990    2.2500    0.0000 S   0  0  0  0  0  0  0  0  0  0  0  0
    0.5078    2.1528    0.0000 O   0  0  0  0  0  0  0  0  0  0  0  0
    2.7990    2.2500    0.0000 O   0  0  0  0  0  0  0  0  0  0  0  0
    1.2990    3.7500    0.0000 C   0  0  0  0  0  0  0  0  0  0  0  0
    2.7990    3.7500    0.0000 F   0  0  0  0  0  0  0  0  0  0  0  0
    1.2990    5.2500    0.0000 F   0  0  0  0  0  0  0  0  0  0  0  0
   -0.2010    3.7500    0.0000 C   0  0  0  0  0  0  0  0  0  0  0  0
   -0.2010    5.2500    0.0000 F   0  0  0  0  0  0  0  0  0  0  0  0
   -0.3089    2.8709    0.0000 F   0  0  0  0  0  0  0  0  0  0  0  0
   -1.7010    3.7500    0.0000 C   0  0  0  0  0  0  0  0  0  0  0  0
   -1.7010    2.2500    0.0000 F   0  0  0  0  0  0  0  0  0  0  0  0
   -1.7010    5.2500    0.0000 F   0  0  0  0  0  0  0  0  0  0  0  0
   -3.2010    3.7500    0.0000 C   0  0  0  0  0  0  0  0  0  0  0  0
   -4.7010    3.7500    0.0000 F   0  0  0  0  0  0  0  0  0  0  0  0
   -3.2010    5.2500    0.0000 F   0  0  0  0  0  0  0  0  0  0  0  0
   -3.2010    2.2500    0.0000 F   0  0  0  0  0  0  0  0  0  0  0  0
    0.0000    6.2500    0.0000 Na  0  0  0  0  0 15  0  0  0  0  0  0
  1  2  1  0
  2  3  1  0
  3  4  1  0
  4  5  1  0
  4  6  1  0
  6  7  1  0
  7  8  2  0
  7  9  2  0
  7 10  1  0
  2 11  1  0
 11 12  2  0
 11 13  2  0
 11 14  1  0
 14 15  1  0
 14 16  1  0
 14 17  1  0
 17 18  1  0
 17 19  1  0
 17 20  1  0
 20 21  1  0
 20 22  1  0
 20 23  1  0
 23 24  1  0
 23 25  1  0
 23 26  1  0
M  CHG  2  10  -1  27   1
M  END
$$$$

     RDKit          2D

 29 27  0  0  0  0  0  0  0  0999 V2000
    1.5490   -0.5490    0.0000 O   0  0  0  0  0  0  0  0  0  0  0  0
    2.2990    0.7500    0.0000 S   0  0  0  0  0  0  0  0  0  0  0  0
    3.0490    2.0490    0.0000 O   0  0  0  0  0  0  0  0  0  0  0  0
    1.0000    1.5000    0.0000 O   0  0  0  0  0  0  0  0  0  0  0  0
    3.5981    0.0000    0.0000 C   0  0  0  0  0  0  0  0  0  0  0  0
    4.8971    0.7500    0.0000 C   0  0  0  0  0  0  0  0  0  0  0  0
    6.1962   -0.0000    0.0000 C   0  0  0  0  0  0  0  0  0  0  0  0
    7.4952    0.7500    0.0000 C   0  0  0  0  0  0  0  0  0  0  0  0
    8.7942   -0.0000    0.0000 N   0  0  0  0  0  0  0  0  0  0  0  0
   10.0933    0.7500    0.0000 C   0  0  0  0  0  0  0  0  0  0  0  0
   11.3923   -0.0000    0.0000 C   0  0  0  0  0  0  0  0  0  0  0  0
   12.6913    0.7500    0.0000 O   0  0  0  0  0  0  0  0  0  0  0  0
    8.7942   -1.5000    0.0000 S   0  0  0  0  0  0  0  0  0  0  0  0
    7.2942   -1.5000    0.0000 O   0  0  0  0  0  0  0  0  0  0  0  0
    9.5854   -1.4028    0.0000 O   0  0  0  0  0  0  0  0  0  0  0  0
    8.7942   -3.0000    0.0000 C   0  0  0  0  0  0  0  0  0  0  0  0
    7.2942   -3.0000    0.0000 F   0  0  0  0  0  0  0  0  0  0  0  0
    8.7942   -4.5000    0.0000 F   0  0  0  0  0  0  0  0  0  0  0  0
   10.2942   -3.0000    0.0000 C   0  0  0  0  0  0  0  0  0  0  0  0
   10.4022   -2.1209    0.0000 F   0  0  0  0  0  0  0  0  0  0  0  0
   10.2942   -4.5000    0.0000 F   0  0  0  0  0  0  0  0  0  0  0  0
   11.7942   -3.0000    0.0000 C   0  0  0  0  0  0  0  0  0  0  0  0
   11.7942   -4.5000    0.0000 F   0  0  0  0  0  0  0  0  0  0  0  0
   11.7942   -1.5000    0.0000 F   0  0  0  0  0  0  0  0  0  0  0  0
   13.2942   -3.0000    0.0000 C   0  0  0  0  0  0  0  0  0  0  0  0
   14.7942   -3.0000    0.0000 F   0  0  0  0  0  0  0  0  0  0  0  0
   13.2942   -4.5000    0.0000 F   0  0  0  0  0  0  0  0  0  0  0  0
   13.2942   -1.5000    0.0000 F   0  0  0  0  0  0  0  0  0  0  0  0
    0.0000    0.0000    0.0000 Li  0  0  0  0  0 15  0  0  0  0  0  0
  1  2  2  0
  2  3  2  0
  2  4  1  0
  2  5  1  0
  5  6  1  0
  6  7  1  0
  7  8  1  0
  8  9  1  0
  9 10  1  0
 10 11  1  0
 11 12  1  0
  9 13  1  0
 13 14  2  0
 13 15  2  0
 13 16  1  0
 16 17  1  0
 16 18  1  0
 16 19  1  0
 19 20  1  0
 19 21  1  0
 19 22  1  0
 22 23  1  0
 22 24  1  0
 22 25  1  0
 25 26  1  0
 25 27  1  0
 25 28  1  0
M  CHG  2   4  -1  29   1
M  END
$$$$

     RDKit          2D

 37 34  0  0  0  0  0  0  0  0999 V2000
   -0.0000   -1.5000    0.0000 O   0  0  0  0  0  0  0  0  0  0  0  0
    0.0000    0.0000    0.0000 C   0  0  0  0  0  0  0  0  0  0  0  0
   -1.2990    0.7500    0.0000 O   0  0  0  0  0  0  0  0  0  0  0  0
    1.2990    0.7500    0.0000 C   0  0  0  0  0  0  0  0  0  0  0  0
    2.0490   -0.5490    0.0000 F   0  0  0  0  0  0  0  0  0  0  0  0
    0.5490    2.0490    0.0000 F   0  0  0  0  0  0  0  0  0  0  0  0
    2.5981    1.5000    0.0000 O   0  0  0  0  0  0  0  0  0  0  0  0
    2.5981    3.0000    0.0000 C   0  0  0  0  0  0  0  0  0  0  0  0
    4.0981    3.0000    0.0000 F   0  0  0  0  0  0  0  0  0  0  0  0
    1.0981    3.0000    0.0000 F   0  0  0  0  0  0  0  0  0  0  0  0
    2.5981    4.5000    0.0000 O   0  0  0  0  0  0  0  0  0  0  0  0
    1.2990    5.2500    0.0000 C   0  0  0  0  0  0  0  0  0  0  0  0
    0.5490    3.9510    0.0000 F   0  0  0  0  0  0  0  0  0  0  0  0
    2.0490    6.5490    0.0000 F   0  0  0  0  0  0  0  0  0  0  0  0
    0.0000    6.0000    0.0000 O   0  0  0  0  0  0  0  0  0  0  0  0
   -1.2990    5.2500    0.0000 C   0  0  0  0  0  0  0  0  0  0  0  0
   -0.5490    3.9510    0.0000 F   0  0  0  0  0  0  0  0  0  0  0  0
   -2.0490    6.5490    0.0000 F   0  0  0  0  0  0  0  0  0  0  0  0
   -2.5981    4.5000    0.0000 C   0  0  0  0  0  0  0  0  0  0  0  0
   -1.8481    3.2010    0.0000 F   0  0  0  0  0  0  0  0  0  0  0  0
   -3.3481    5.7990    0.0000 F   0  0  0  0  0  0  0  0  0  0  0  0
   -3.8971    3.7500    0.0000 O   0  0  0  0  0  0  0  0  0  0  0  0
   -5.1962    4.5000    0.0000 C   0  0  0  0  0  0  0  0  0  0  0  0
   -4.4462    5.7990    0.0000 F   0  0  0  0  0  0  0  0  0  0  0  0
   -5.9462    3.2010    0.0000 F   0  0  0  0  0  0  0  0  0  0  0  0
   -6.4952    5.2500    0.0000 C   0  0  0  0  0  0  0  0  0  0  0  0
   -5.7452    6.5490    0.0000 F   0  0  0  0  0  0  0  0  0  0  0  0
   -7.2452    3.9510    0.0000 F   0  0  0  0  0  0  0  0  0  0  0  0
   -7.7942    6.0000    0.0000 O   0  0  0  0  0  0  0  0  0  0  0  0
   -9.0933    5.2500    0.0000 C   0  0  0  0  0  0  0  0  0  0  0  0
   -8.3433    3.9510    0.0000 F   0  0  0  0  0  0  0  0  0  0  0  0
   -9.8433    6.5490    0.0000 F   0  0  0  0  0  0  0  0  0  0  0  0
  -10.3923    4.5000    0.0000 C   0  0  0  0  0  0  0  0  0  0  0  0
  -11.6913    5.2500    0.0000 O   0  0  0  0  0  0  0  0  0  0  0  0
  -10.3923    3.0000    0.0000 O   0  0  0  0  0  0  0  0  0  0  0  0
    0.0000    7.5490    0.0000 Na  0  0  0  0  0 15  0  0  0  0  0  0
    0.0000    8.5490    0.0000 Na  0  0  0  0  0 15  0  0  0  0  0  0
  1  2  2  0
  2  3  1  0
  2  4  1  0
  4  5  1  0
  4  6  1  0
  4  7  1  0
  7  8  1  0
  8  9  1  0
  8 10  1  0
  8 11  1  0
 11 12  1  0
 12 13  1  0
 12 14  1  0
 12 15  1  0
 15 16  1  0
 16 17  1  0
 16 18  1  0
 16 19  1  0
 19 20  1  0
 19 21  1  0
 19 22  1  0
 22 23  1  0
 23 24  1  0
 23 25  1  0
 23 26  1  0
 26 27  1  0
 26 28  1  0
 26 29  1  0
 29 30  1  0
 30 31  1  0
 30 32  1  0
 30 33  1  0
 33 34  2  0
 33 35  1  0
M  CHG  4   3  -1  35  -1  36   1  37   1
M  END
$$$$

     RDKit          2D

 36 35  0  0  0  0  0  0  0  0999 V2000
    3.7500    1.2990    0.0000 O   0  0  0  0  0  0  0  0  0  0  0  0
    3.0000    0.0000    0.0000 C   0  0  0  0  0  0  0  0  0  0  0  0
    3.7500   -1.2990    0.0000 O   0  0  0  0  0  0  0  0  0  0  0  0
    1.5000    0.0000    0.0000 C   0  0  0  0  0  0  0  0  0  0  0  0
    0.7500   -1.2990    0.0000 C   0  0  0  0  0  0  0  0  0  0  0  0
   -0.7500   -1.2990    0.0000 C   0  0  0  0  0  0  0  0  0  0  0  0
   -1.5000    0.0000    0.0000 C   0  0  0  0  0  0  0  0  0  0  0  0
   -3.0000    0.0000    0.0000 O   0  0  0  0  0  0  0  0  0  0  0  0
   -3.7500    1.2990    0.0000 C   0  0  0  0  0  0  0  0  0  0  0  0
   -2.4510    2.0490    0.0000 F   0  0  0  0  0  0  0  0  0  0  0  0
   -5.0490    0.5490    0.0000 F   0  0  0  0  0  0  0  0  0  0  0  0
   -4.5000    2.5981    0.0000 C   0  0  0  0  0  0  0  0  0  0  0  0
   -5.7990    1.8481    0.0000 F   0  0  0  0  0  0  0  0  0  0  0  0
   -3.2010    3.3481    0.0000 F   0  0  0  0  0  0  0  0  0  0  0  0
   -5.2500    3.8971    0.0000 C   0  0  0  0  0  0  0  0  0  0  0  0
   -3.9510    4.6471    0.0000 F   0  0  0  0  0  0  0  0  0  0  0  0
   -6.5490    3.1471    0.0000 F   0  0  0  0  0  0  0  0  0  0  0  0
   -6.0000    5.1962    0.0000 C   0  0  0  0  0  0  0  0  0  0  0  0
   -7.2990    4.4462    0.0000 F   0  0  0  0  0  0  0  0  0  0  0  0
   -4.7010    5.9462    0.0000 F   0  0  0  0  0  0  0  0  0  0  0  0
   -6.7500    6.4952    0.0000 C   0  0  0  0  0  0  0  0  0  0  0  0
   -8.0490    5.7452    0.0000 F   0  0  0  0  0  0  0  0  0  0  0  0
   -5.4510    7.2452    0.0000 F   0  0  0  0  0  0  0  0  0  0  0  0
   -7.5000    7.7942    0.0000 C   0  0  0  0  0  0  0  0  0  0  0  0
   -6.2010    8.5442    0.0000 F   0  0  0  0  0  0  0  0  0  0  0  0
   -8.7990    7.0442    0.0000 F   0  0  0  0  0  0  0  0  0  0  0  0
   -8.2500    9.0933    0.0000 C   0  0  0  0  0  0  0  0  0  0  0  0
   -9.5490    8.3433    0.0000 F   0  0  0  0  0  0  0  0  0  0  0  0
   -6.9510    9.8433    0.0000 F   0  0  0  0  0  0  0  0  0  0  0  0
   -9.0000   10.3923    0.0000 C   0  0  0  0  0  0  0  0  0  0  0  0
   -9.7500   11.6913    0.0000 F   0  0  0  0  0  0  0  0  0  0  0  0
   -7.7010   11.1423    0.0000 F   0  0  0  0  0  0  0  0  0  0  0  0
  -10.2990    9.6423    0.0000 F   0  0  0  0  0  0  0  0  0  0  0  0
   -0.7500    1.2990    0.0000 C   0  0  0  0  0  0  0  0  0  0  0  0
    0.7500    1.2990    0.0000 C   0  0  0  0  0  0  0  0  0  0  0  0
    0.0000   12.6913    0.0000 K   0  0  0  0  0 15  0  0  0  0  0  0
  1  2  2  0
  2  3  1  0
  2  4  1  0
  4  5  2  0
  5  6  1  0
  6  7  2  0
  7  8  1  0
  8  9  1  0
  9 10  1  0
  9 11  1  0
  9 12  1  0
 12 13  1  0
 12 14  1  0
 12 15  1  0
 15 16  1  0
 15 17  1  0
 15 18  1  0
 18 19  1  0
 18 20  1  0
 18 21  1  0
 21 22  1  0
 21 23  1  0
 21 24  1  0
 24 25  1  0
 24 26  1  0
 24 27  1  0
 27 28  1  0
 27 29  1  0
 27 30  1  0
 30 31  1  0
 30 32  1  0
 30 33  1  0
  7 34  1  0
 34 35  2  0
 35  4  1  0
M  CHG  2   3  -1  36   1
M  END
$$$$

     RDKit          2D

 50 49  0  0  0  0  0  0  0  0999 V2000
    4.0981   21.4904    0.0000 C   0  0  0  0  0  0  0  0  0  0  0  0
    2.7990   20.7404    0.0000 N   0  0  0  0  0  0  0  0  0  0  0  0
    1.5000   19.9904    0.0000 C   0  0  0  0  0  0  0  0  0  0  0  0
    2.0490   22.0394    0.0000 C   0  0  0  0  0  0  0  0  0  0  0  0
    3.5490   19.4413    0.0000 C   0  0  0  0  0  0  0  0  0  0  0  0
    2.7990   18.1423    0.0000 C   0  0  0  0  0  0  0  0  0  0  0  0
    3.5490   16.8433    0.0000 O   0  0  0  0  0  0  0  0  0  0  0  0
    2.7990   15.5442    0.0000 C   0  0  0  0  0  0  0  0  0  0  0  0
    3.5490   14.2452    0.0000 C   0  0  0  0  0  0  0  0  0  0  0  0
    2.7990   12.9462    0.0000 C   0  0  0  0  0  0  0  0  0  0  0  0
    3.5490   11.6471    0.0000 N   0  0  0  0  0  0  0  0  0  0  0  0
    2.7990   10.3481    0.0000 S   0  0  0  0  0  0  0  0  0  0  0  0
    1.5000   11.0981    0.0000 O   0  0  0  0  0  0  0  0  0  0  0  0
    3.5328   10.0366    0.0000 O   0  0  0  0  0  0  0  0  0  0  0  0
    2.0490    9.0490    0.0000 C   0  0  0  0  0  0  0  0  0  0  0  0
    0.7500    9.7990    0.0000 F   0  0  0  0  0  0  0  0  0  0  0  0
    1.2990    7.7500    0.0000 F   0  0  0  0  0  0  0  0  0  0  0  0
    3.3481    8.2990    0.0000 C   0  0  0  0  0  0  0  0  0  0  0  0
    2.5981    7.0000    0.0000 F   0  0  0  0  0  0  0  0  0  0  0  0
    3.8811    9.0064    0.0000 F   0  0  0  0  0  0  0  0  0  0  0  0
    4.6471    7.5490    0.0000 C   0  0  0  0  0  0  0  0  0  0  0  0
    5.3971    8.8481    0.0000 F   0  0  0  0  0  0  0  0  0  0  0  0
    3.8971    6.2500    0.0000 F   0  0  0  0  0  0  0  0  0  0  0  0
    5.9462    6.7990    0.0000 C   0  0  0  0  0  0  0  0  0  0  0  0
    5.1962    5.5000    0.0000 F   0  0  0  0  0  0  0  0  0  0  0  0
    6.6962    8.0981    0.0000 F   0  0  0  0  0  0  0  0  0  0  0  0
    7.2452    6.0490    0.0000 C   0  0  0  0  0  0  0  0  0  0  0  0
    6.4952    4.7500    0.0000 F   0  0  0  0  0  0  0  0  0  0  0  0
    7.9952    7.3481    0.0000 F   0  0  0  0  0  0  0  0  0  0  0  0
    8.5442    5.2990    0.0000 C   0  0  0  0  0  0  0  0  0  0  0  0
    9.2942    6.5981    0.0000 F   0  0  0  0  0  0  0  0  0  0  0  0
    7.7942    4.0000    0.0000 F   0  0  0  0  0  0  0  0  0  0  0  0
    9.8433    4.5490    0.0000 C   0  0  0  0  0  0  0  0  0  0  0  0
    9.0933    3.2500    0.0000 F   0  0  0  0  0  0  0  0  0  0  0  0
   10.5933    5.8481    0.0000 F   0  0  0  0  0  0  0  0  0  0  0  0
   11.1423    3.7990    0.0000 C   0  0  0  0  0  0  0  0  0  0  0  0
   12.4413    3.0490    0.0000 F   0  0  0  0  0  0  0  0  0  0  0  0
   11.8923    5.0981    0.0000 F   0  0  0  0  0  0  0  0  0  0  0  0
   10.3923    2.5000    0.0000 F   0  0  0  0  0  0  0  0  0  0  0  0
    3.0000    0.0000    0.0000 C   0  0  0  0  0  0  0  0  0  0  0  0
    1.5000    0.0000    0.0000 C   0  0  0  0  0  0  0  0  0  0  0  0
    0.7500   -1.2990    0.0000 C   0  0  0  0  0  0  0  0  0  0  0  0
   -0.7500   -1.2990    0.0000 C   0  0  0  0  0  0  0  0  0  0  0  0
   -1.5000    0.0000    0.0000 C   0  0  0  0  0  0  0  0  0  0  0  0
   -3.0000    0.0000    0.0000 S   0  0  0  0  0  0  0  0  0  0  0  0
   -3.0000    1.5000    0.0000 O   0  0  0  0  0  0  0  0  0  0  0  0
   -3.0000   -1.5000    0.0000 O   0  0  0  0  0  0  0  0  0  0  0  0
   -4.5000    0.0000    0.0000 O   0  0  0  0  0  0  0  0  0  0  0  0
   -0.7500    1.2990    0.0000 C   0  0  0  0  0  0  0  0  0  0  0  0
    0.7500    1.2990    0.0000 C   0  0  0  0  0  0  0  0  0  0  0  0
  1  2  1  0
  2  3  1  0
  2  4  1  0
  2  5  1  0
  5  6  1  0
  6  7  1  0
  7  8  1  0
  8  9  1  0
  9 10  1  0
 10 11  1  0
 11 12  1  0
 12 13  2  0
 12 14  2  0
 12 15  1  0
 15 16  1  0
 15 17  1  0
 15 18  1  0
 18 19  1  0
 18 20  1  0
 18 21  1  0
 21 22  1  0
 21 23  1  0
 21 24  1  0
 24 25  1  0
 24 26  1  0
 24 27  1  0
 27 28  1  0
 27 29  1  0
 27 30  1  0
 30 31  1  0
 30 32  1  0
 30 33  1  0
 33 34  1  0
 33 35  1  0
 33 36  1  0
 36 37  1  0
 36 38  1  0
 36 39  1  0
 40 41  1  0
 41 42  2  0
 42 43  1  0
 43 44  2  0
 44 45  1  0
 45 46  2  0
 45 47  2  0
 45 48  1  0
 44 49  1  0
 49 50  2  0
 50 41  1  0
M  CHG  2   2   1  48  -1
M  END
$$$$

     RDKit          2D

 39 38  0  0  0  0  0  0  0  0999 V2000
    2.6491   -0.9642    0.0000 C   0  0  0  0  0  0  0  0  0  0  0  0
    1.5000    0.0000    0.0000 N   0  0  0  0  0  0  0  0  0  0  0  0
    2.6491    0.9642    0.0000 C   0  0  0  0  0  0  0  0  0  0  0  0
    2.3886    2.4414    0.0000 C   0  0  0  0  0  0  0  0  0  0  0  0
    3.5377    3.4056    0.0000 O   0  0  0  0  0  0  0  0  0  0  0  0
    0.7500    1.2990    0.0000 C   0  0  0  0  0  0  0  0  0  0  0  0
   -0.7500    1.2990    0.0000 C   0  0  0  0  0  0  0  0  0  0  0  0
   -1.5000    0.0000    0.0000 N   0  0  0  0  0  0  0  0  0  0  0  0
   -3.0000    0.0000    0.0000 S   0  0  0  0  0  0  0  0  0  0  0  0
   -3.0000    1.5000    0.0000 O   0  0  0  0  0  0  0  0  0  0  0  0
   -2.9028   -0.7912    0.0000 O   0  0  0  0  0  0  0  0  0  0  0  0
   -4.5000    0.0000    0.0000 C   0  0  0  0  0  0  0  0  0  0  0  0
   -4.5000    1.5000    0.0000 F   0  0  0  0  0  0  0  0  0  0  0  0
   -6.0000    0.0000    0.0000 F   0  0  0  0  0  0  0  0  0  0  0  0
   -4.5000   -1.5000    0.0000 C   0  0  0  0  0  0  0  0  0  0  0  0
   -3.6209   -1.6080    0.0000 F   0  0  0  0  0  0  0  0  0  0  0  0
   -6.0000   -1.5000    0.0000 F   0  0  0  0  0  0  0  0  0  0  0  0
   -4.5000   -3.0000    0.0000 C   0  0  0  0  0  0  0  0  0  0  0  0
   -3.0000   -3.0000    0.0000 F   0  0  0  0  0  0  0  0  0  0  0  0
   -6.0000   -3.0000    0.0000 F   0  0  0  0  0  0  0  0  0  0  0  0
   -4.5000   -4.5000    0.0000 C   0  0  0  0  0  0  0  0  0  0  0  0
   -6.0000   -4.5000    0.0000 F   0  0  0  0  0  0  0  0  0  0  0  0
   -3.0000   -4.5000    0.0000 F   0  0  0  0  0  0  0  0  0  0  0  0
   -4.5000   -6.0000    0.0000 C   0  0  0  0  0  0  0  0  0  0  0  0
   -6.0000   -6.0000    0.0000 F   0  0  0  0  0  0  0  0  0  0  0  0
   -3.0000   -6.0000    0.0000 F   0  0  0  0  0  0  0  0  0  0  0  0
   -4.5000   -7.5000    0.0000 C   0  0  0  0  0  0  0  0  0  0  0  0
   -3.0000   -7.5000    0.0000 F   0  0  0  0  0  0  0  0  0  0  0  0
   -6.0000   -7.5000    0.0000 F   0  0  0  0  0  0  0  0  0  0  0  0
   -4.5000   -9.0000    0.0000 C   0  0  0  0  0  0  0  0  0  0  0  0
   -6.0000   -9.0000    0.0000 F   0  0  0  0  0  0  0  0  0  0  0  0
   -3.0000   -9.0000    0.0000 F   0  0  0  0  0  0  0  0  0  0  0  0
   -4.5000  -10.5000    0.0000 C   0  0  0  0  0  0  0  0  0  0  0  0
   -4.5000  -12.0000    0.0000 F   0  0  0  0  0  0  0  0  0  0  0  0
   -3.0000  -10.5000    0.0000 F   0  0  0  0  0  0  0  0  0  0  0  0
   -6.0000  -10.5000    0.0000 F   0  0  0  0  0  0  0  0  0  0  0  0
   -0.7500   -1.2990    0.0000 C   0  0  0  0  0  0  0  0  0  0  0  0
    0.7500   -1.2990    0.0000 C   0  0  0  0  0  0  0  0  0  0  0  0
    4.5377    0.0000    0.0000 Br  0  0  0  0  0  0  0  0  0  0  0  0
  1  2  1  0
  2  3  1  0
  3  4  1  0
  4  5  1  0
  2  6  1  0
  6  7  1  0
  7  8  1  0
  8  9  1  0
  9 10  2  0
  9 11  2  0
  9 12  1  0
 12 13  1  0
 12 14  1  0
 12 15  1  0
 15 16  1  0
 15 17  1  0
 15 18  1  0
 18 19  1  0
 18 20  1  0
 18 21  1  0
 21 22  1  0
 21 23  1  0
 21 24  1  0
 24 25  1  0
 24 26  1  0
 24 27  1  0
 27 28  1  0
 27 29  1  0
 27 30  1  0
 30 31  1  0
 30 32  1  0
 30 33  1  0
 33 34  1  0
 33 35  1  0
 33 36  1  0
  8 37  1  0
 37 38  1  0
 38  2  1  0
M  CHG  2   2   1  39  -1
M  END
$$$$

     RDKit          2D

 20 19  0  0  0  0  0  0  0  0999 V2000
   -0.0000   -1.5000    0.0000 O   0  0  0  0  0  0  0  0  0  0  0  0
    0.0000    0.0000    0.0000 C   0  0  0  0  0  0  0  0  0  0  0  0
   -1.2990    0.7500    0.0000 O   0  0  0  0  0  0  0  0  0  0  0  0
    1.2990    0.7500    0.0000 C   0  0  0  0  0  0  0  0  0  0  0  0
    2.0490   -0.5490    0.0000 F   0  0  0  0  0  0  0  0  0  0  0  0
    0.5490    2.0490    0.0000 F   0  0  0  0  0  0  0  0  0  0  0  0
    2.5981    1.5000    0.0000 C   0  0  0  0  0  0  0  0  0  0  0  0
    3.8971    0.7500    0.0000 F   0  0  0  0  0  0  0  0  0  0  0  0
    2.5981    3.0000    0.0000 O   0  0  0  0  0  0  0  0  0  0  0  0
    3.8971    3.7500    0.0000 C   0  0  0  0  0  0  0  0  0  0  0  0
    4.6471    2.4510    0.0000 F   0  0  0  0  0  0  0  0  0  0  0  0
    3.1471    5.0490    0.0000 F   0  0  0  0  0  0  0  0  0  0  0  0
    5.1962    4.5000    0.0000 C   0  0  0  0  0  0  0  0  0  0  0  0
    5.9462    3.2010    0.0000 F   0  0  0  0  0  0  0  0  0  0  0  0
    4.4462    5.7990    0.0000 F   0  0  0  0  0  0  0  0  0  0  0  0
    6.4952    5.2500    0.0000 O   0  0  0  0  0  0  0  0  0  0  0  0
    6.4952    6.7500    0.0000 C   0  0  0  0  0  0  0  0  0  0  0  0
    6.4952    8.2500    0.0000 F   0  0  0  0  0  0  0  0  0  0  0  0
    7.9952    6.7500    0.0000 F   0  0  0  0  0  0  0  0  0  0  0  0
    4.9952    6.7500    0.0000 F   0  0  0  0  0  0  0  0  0  0  0  0
  1  2  2  0
  2  3  1  0
  2  4  1  0
  4  5  1  0
  4  6  1  0
  4  7  1  0
  7  8  1  0
  7  9  1  0
  9 10  1  0
 10 11  1  0
 10 12  1  0
 10 13  1  0
 13 14  1  0
 13 15  1  0
 13 16  1  0
 16 17  1  0
 17 18  1  0
 17 19  1  0
 17 20  1  0
M  END
$$$$

     RDKit          2D

 26 25  0  0  0  0  0  0  0  0999 V2000
   -0.0000   -1.5000    0.0000 O   0  0  0  0  0  0  0  0  0  0  0  0
    0.0000    0.0000    0.0000 C   0  0  0  0  0  0  0  0  0  0  0  0
   -1.2990    0.7500    0.0000 O   0  0  0  0  0  0  0  0  0  0  0  0
    1.2990    0.7500    0.0000 C   0  0  0  0  0  0  0  0  0  0  0  0
    2.0490   -0.5490    0.0000 F   0  0  0  0  0  0  0  0  0  0  0  0
    0.5490    2.0490    0.0000 F   0  0  0  0  0  0  0  0  0  0  0  0
    2.5981    1.5000    0.0000 C   0  0  0  0  0  0  0  0  0  0  0  0
    3.8971    0.7500    0.0000 F   0  0  0  0  0  0  0  0  0  0  0  0
    2.5981    3.0000    0.0000 C   0  0  0  0  0  0  0  0  0  0  0  0
    4.0981    3.0000    0.0000 F   0  0  0  0  0  0  0  0  0  0  0  0
    1.0981    3.0000    0.0000 F   0  0  0  0  0  0  0  0  0  0  0  0
    2.5981    4.5000    0.0000 O   0  0  0  0  0  0  0  0  0  0  0  0
    1.2990    5.2500    0.0000 C   0  0  0  0  0  0  0  0  0  0  0  0
    0.5490    3.9510    0.0000 F   0  0  0  0  0  0  0  0  0  0  0  0
    2.0490    6.5490    0.0000 F   0  0  0  0  0  0  0  0  0  0  0  0
    0.0000    6.0000    0.0000 C   0  0  0  0  0  0  0  0  0  0  0  0
   -0.7500    4.7010    0.0000 F   0  0  0  0  0  0  0  0  0  0  0  0
    0.7500    7.2990    0.0000 F   0  0  0  0  0  0  0  0  0  0  0  0
   -1.2990    6.7500    0.0000 C   0  0  0  0  0  0  0  0  0  0  0  0
   -0.5490    8.0490    0.0000 F   0  0  0  0  0  0  0  0  0  0  0  0
   -2.0490    5.4510    0.0000 F   0  0  0  0  0  0  0  0  0  0  0  0
   -2.5981    7.5000    0.0000 O   0  0  0  0  0  0  0  0  0  0  0  0
   -3.8971    6.7500    0.0000 C   0  0  0  0  0  0  0  0  0  0  0  0
   -5.1962    6.0000    0.0000 F   0  0  0  0  0  0  0  0  0  0  0  0
   -4.6471    8.0490    0.0000 F   0  0  0  0  0  0  0  0  0  0  0  0
   -3.1471    5.4510    0.0000 F   0  0  0  0  0  0  0  0  0  0  0  0
  1  2  2  0
  2  3  1  0
  2  4  1  0
  4  5  1  0
  4  6  1  0
  4  7  1  0
  7  8  1  0
  7  9  1  0
  9 10  1  0
  9 11  1  0
  9 12  1  0
 12 13  1  0
 13 14  1  0
 13 15  1  0
 13 16  1  0
 16 17  1  0
 16 18  1  0
 16 19  1  0
 19 20  1  0
 19 21  1  0
 19 22  1  0
 22 23  1  0
 23 24  1  0
 23 25  1  0
 23 26  1  0
M  END
$$$$

     RDKit          2D

 28 27  0  0  0  0  0  0  0  0999 V2000
    1.2990    2.2500    0.0000 O   0  0  0  0  0  0  0  0  0  0  0  0
    1.2990    0.7500    0.0000 C   0  0  0  0  0  0  0  0  0  0  0  0
    2.5981   -0.0000    0.0000 O   0  0  0  0  0  0  0  0  0  0  0  0
    0.0000    0.0000    0.0000 C   0  0  0  0  0  0  0  0  0  0  0  0
   -1.2990    0.7500    0.0000 O   0  0  0  0  0  0  0  0  0  0  0  0
   -2.5981    0.0000    0.0000 C   0  0  0  0  0  0  0  0  0  0  0  0
   -1.8481   -1.2990    0.0000 F   0  0  0  0  0  0  0  0  0  0  0  0
   -3.3481    1.2990    0.0000 F   0  0  0  0  0  0  0  0  0  0  0  0
   -3.8971   -0.7500    0.0000 C   0  0  0  0  0  0  0  0  0  0  0  0
   -5.1962    0.0000    0.0000 F   0  0  0  0  0  0  0  0  0  0  0  0
   -3.8971   -2.2500    0.0000 O   0  0  0  0  0  0  0  0  0  0  0  0
   -5.1962   -3.0000    0.0000 C   0  0  0  0  0  0  0  0  0  0  0  0
   -5.9462   -1.7010    0.0000 F   0  0  0  0  0  0  0  0  0  0  0  0
   -4.4462   -4.2990    0.0000 F   0  0  0  0  0  0  0  0  0  0  0  0
   -6.4952   -3.7500    0.0000 C   0  0  0  0  0  0  0  0  0  0  0  0
   -7.2452   -2.4510    0.0000 F   0  0  0  0  0  0  0  0  0  0  0  0
   -5.7452   -5.0490    0.0000 F   0  0  0  0  0  0  0  0  0  0  0  0
   -7.7942   -4.5000    0.0000 O   0  0  0  0  0  0  0  0  0  0  0  0
   -7.7942   -6.0000    0.0000 C   0  0  0  0  0  0  0  0  0  0  0  0
   -6.2942   -6.0000    0.0000 F   0  0  0  0  0  0  0  0  0  0  0  0
   -9.2942   -6.0000    0.0000 F   0  0  0  0  0  0  0  0  0  0  0  0
   -7.7942   -7.5000    0.0000 C   0  0  0  0  0  0  0  0  0  0  0  0
   -6.2942   -7.5000    0.0000 F   0  0  0  0  0  0  0  0  0  0  0  0
   -9.2942   -7.5000    0.0000 F   0  0  0  0  0  0  0  0  0  0  0  0
   -7.7942   -9.0000    0.0000 C   0  0  0  0  0  0  0  0  0  0  0  0
   -7.7942  -10.5000    0.0000 F   0  0  0  0  0  0  0  0  0  0  0  0
   -9.2942   -9.0000    0.0000 F   0  0  0  0  0  0  0  0  0  0  0  0
   -6.2942   -9.0000    0.0000 F   0  0  0  0  0  0  0  0  0  0  0  0
  1  2  2  0
  2  3  1  0
  2  4  1  0
  4  5  1  0
  5  6  1  0
  6  7  1  0
  6  8  1  0
  6  9  1  0
  9 10  1  0
  9 11  1  0
 11 12  1  0
 12 13  1  0
 12 14  1  0
 12 15  1  0
 15 16  1  0
 15 17  1  0
 15 18  1  0
 18 19  1  0
 19 20  1  0
 19 21  1  0
 19 22  1  0
 22 23  1  0
 22 24  1  0
 22 25  1  0
 25 26  1  0
 25 27  1  0
 25 28  1  0
M  END
$$$$

     RDKit          2D

 25 24  0  0  0  0  0  0  0  0999 V2000
    1.2990    2.2500    0.0000 O   0  0  0  0  0  0  0  0  0  0  0  0
    1.2990    0.7500    0.0000 C   0  0  0  0  0  0  0  0  0  0  0  0
    2.5981   -0.0000    0.0000 O   0  0  0  0  0  0  0  0  0  0  0  0
    0.0000    0.0000    0.0000 C   0  0  0  0  0  0  0  0  0  0  0  0
   -1.2990    0.7500    0.0000 O   0  0  0  0  0  0  0  0  0  0  0  0
   -2.5981    0.0000    0.0000 C   0  0  0  0  0  0  0  0  0  0  0  0
   -1.8481   -1.2990    0.0000 F   0  0  0  0  0  0  0  0  0  0  0  0
   -3.3481    1.2990    0.0000 F   0  0  0  0  0  0  0  0  0  0  0  0
   -3.8971   -0.7500    0.0000 C   0  0  0  0  0  0  0  0  0  0  0  0
   -3.1471   -2.0490    0.0000 F   0  0  0  0  0  0  0  0  0  0  0  0
   -4.6471    0.5490    0.0000 F   0  0  0  0  0  0  0  0  0  0  0  0
   -5.1962   -1.5000    0.0000 C   0  0  0  0  0  0  0  0  0  0  0  0
   -5.9462   -0.2010    0.0000 F   0  0  0  0  0  0  0  0  0  0  0  0
   -4.4462   -2.7990    0.0000 F   0  0  0  0  0  0  0  0  0  0  0  0
   -6.4952   -2.2500    0.0000 O   0  0  0  0  0  0  0  0  0  0  0  0
   -6.4952   -3.7500    0.0000 C   0  0  0  0  0  0  0  0  0  0  0  0
   -4.9952   -3.7500    0.0000 F   0  0  0  0  0  0  0  0  0  0  0  0
   -7.9952   -3.7500    0.0000 F   0  0  0  0  0  0  0  0  0  0  0  0
   -6.4952   -5.2500    0.0000 C   0  0  0  0  0  0  0  0  0  0  0  0
   -4.9952   -5.2500    0.0000 F   0  0  0  0  0  0  0  0  0  0  0  0
   -7.9952   -5.2500    0.0000 F   0  0  0  0  0  0  0  0  0  0  0  0
   -6.4952   -6.7500    0.0000 C   0  0  0  0  0  0  0  0  0  0  0  0
   -6.4952   -8.2500    0.0000 F   0  0  0  0  0  0  0  0  0  0  0  0
   -7.9952   -6.7500    0.0000 F   0  0  0  0  0  0  0  0  0  0  0  0
   -4.9952   -6.7500    0.0000 F   0  0  0  0  0  0  0  0  0  0  0  0
  1  2  2  0
  2  3  1  0
  2  4  1  0
  4  5  1  0
  5  6  1  0
  6  7  1  0
  6  8  1  0
  6  9  1  0
  9 10  1  0
  9 11  1  0
  9 12  1  0
 12 13  1  0
 12 14  1  0
 12 15  1  0
 15 16  1  0
 16 17  1  0
 16 18  1  0
 16 19  1  0
 19 20  1  0
 19 21  1  0
 19 22  1  0
 22 23  1  0
 22 24  1  0
 22 25  1  0
M  END
$$$$

     RDKit          2D

 35 33  0  0  0  0  0  0  0  0999 V2000
    0.0000    0.0000    0.0000 C   0  0  0  0  0  0  0  0  0  0  0  0
    1.2990    0.7500    0.0000 C   0  0  0  0  0  0  0  0  0  0  0  0
    2.5981   -0.0000    0.0000 N   0  0  0  0  0  0  0  0  0  0  0  0
    3.8971   -0.7500    0.0000 C   0  0  0  0  0  0  0  0  0  0  0  0
    1.8481   -1.2990    0.0000 C   0  0  0  0  0  0  0  0  0  0  0  0
    2.5981   -2.5981    0.0000 C   0  0  0  0  0  0  0  0  0  0  0  0
    3.3481    1.2990    0.0000 C   0  0  0  0  0  0  0  0  0  0  0  0
    4.8481    1.2990    0.0000 C   0  0  0  0  0  0  0  0  0  0  0  0
    5.5981   -0.0000    0.0000 O   0  0  0  0  0  0  0  0  0  0  0  0
    5.5981    2.5981    0.0000 C   0  0  0  0  0  0  0  0  0  0  0  0
    6.8971    1.8481    0.0000 F   0  0  0  0  0  0  0  0  0  0  0  0
    4.2990    3.3481    0.0000 F   0  0  0  0  0  0  0  0  0  0  0  0
    6.3481    3.8971    0.0000 C   0  0  0  0  0  0  0  0  0  0  0  0
    5.0490    4.6471    0.0000 F   0  0  0  0  0  0  0  0  0  0  0  0
    7.6471    3.1471    0.0000 F   0  0  0  0  0  0  0  0  0  0  0  0
    7.0981    5.1962    0.0000 C   0  0  0  0  0  0  0  0  0  0  0  0
    8.3971    4.4462    0.0000 F   0  0  0  0  0  0  0  0  0  0  0  0
    5.7990    5.9462    0.0000 F   0  0  0  0  0  0  0  0  0  0  0  0
    7.8481    6.4952    0.0000 C   0  0  0  0  0  0  0  0  0  0  0  0
    6.5490    7.2452    0.0000 F   0  0  0  0  0  0  0  0  0  0  0  0
    9.1471    5.7452    0.0000 F   0  0  0  0  0  0  0  0  0  0  0  0
    8.5981    7.7942    0.0000 C   0  0  0  0  0  0  0  0  0  0  0  0
    9.8971    7.0442    0.0000 F   0  0  0  0  0  0  0  0  0  0  0  0
    7.2990    8.5442    0.0000 F   0  0  0  0  0  0  0  0  0  0  0  0
    9.3481    9.0933    0.0000 C   0  0  0  0  0  0  0  0  0  0  0  0
    8.0490    9.8433    0.0000 F   0  0  0  0  0  0  0  0  0  0  0  0
   10.6471    8.3433    0.0000 F   0  0  0  0  0  0  0  0  0  0  0  0
   10.0981   10.3923    0.0000 C   0  0  0  0  0  0  0  0  0  0  0  0
   11.3971    9.6423    0.0000 F   0  0  0  0  0  0  0  0  0  0  0  0
    8.7990   11.1423    0.0000 F   0  0  0  0  0  0  0  0  0  0  0  0
   10.8481   11.6913    0.0000 C   0  0  0  0  0  0  0  0  0  0  0  0
   11.5981   12.9904    0.0000 F   0  0  0  0  0  0  0  0  0  0  0  0
    9.5490   12.4413    0.0000 F   0  0  0  0  0  0  0  0  0  0  0  0
   12.1471   10.9413    0.0000 F   0  0  0  0  0  0  0  0  0  0  0  0
   13.1471    0.0000    0.0000 I   0  0  0  0  0  0  0  0  0  0  0  0
  1  2  1  0
  2  3  1  0
  3  4  1  0
  3  5  1  0
  5  6  1  0
  3  7  1  0
  7  8  1  0
  8  9  1  0
  8 10  1  0
 10 11  1  0
 10 12  1  0
 10 13  1  0
 13 14  1  0
 13 15  1  0
 13 16  1  0
 16 17  1  0
 16 18  1  0
 16 19  1  0
 19 20  1  0
 19 21  1  0
 19 22  1  0
 22 23  1  0
 22 24  1  0
 22 25  1  0
 25 26  1  0
 25 27  1  0
 25 28  1  0
 28 29  1  0
 28 30  1  0
 28 31  1  0
 31 32  1  0
 31 33  1  0
 31 34  1  0
M  CHG  2   3   1  35  -1
M  END
$$$$

     RDKit          2D

 42 41  0  0  0  0  0  0  0  0999 V2000
   10.2990   -5.9462    0.0000 C   0  0  0  0  0  0  0  0  0  0  0  0
   10.2990   -4.4462    0.0000 N   0  0  0  0  0  0  0  0  0  0  0  0
   10.2990   -2.9462    0.0000 C   0  0  0  0  0  0  0  0  0  0  0  0
   11.7990   -4.4462    0.0000 C   0  0  0  0  0  0  0  0  0  0  0  0
   12.5490   -3.1471    0.0000 C   0  0  0  0  0  0  0  0  0  0  0  0
   14.0490   -3.1471    0.0000 O   0  0  0  0  0  0  0  0  0  0  0  0
    8.7990   -4.4462    0.0000 C   0  0  0  0  0  0  0  0  0  0  0  0
    8.0490   -3.1471    0.0000 C   0  0  0  0  0  0  0  0  0  0  0  0
    6.5490   -3.1471    0.0000 C   0  0  0  0  0  0  0  0  0  0  0  0
    5.7990   -1.8481    0.0000 N   0  0  0  0  0  0  0  0  0  0  0  0
    4.2990   -1.8481    0.0000 C   0  0  0  0  0  0  0  0  0  0  0  0
    3.5490   -0.5490    0.0000 C   0  0  0  0  0  0  0  0  0  0  0  0
    2.0490   -0.5490    0.0000 C   0  0  0  0  0  0  0  0  0  0  0  0
    1.2990    0.7500    0.0000 S   0  0  0  0  0  0  0  0  0  0  0  0
    0.0000   -0.0000    0.0000 O   0  0  0  0  0  0  0  0  0  0  0  0
    2.6798    1.3361    0.0000 O   0  0  0  0  0  0  0  0  0  0  0  0
    0.3963    1.9479    0.0000 O   0  0  0  0  0  0  0  0  0  0  0  0
    6.5490   -0.5490    0.0000 S   0  0  0  0  0  0  0  0  0  0  0  0
    7.8481   -1.2990    0.0000 O   0  0  0  0  0  0  0  0  0  0  0  0
    5.8152   -0.2376    0.0000 O   0  0  0  0  0  0  0  0  0  0  0  0
    7.2990    0.7500    0.0000 C   0  0  0  0  0  0  0  0  0  0  0  0
    8.5981    0.0000    0.0000 F   0  0  0  0  0  0  0  0  0  0  0  0
    8.0490    2.0490    0.0000 F   0  0  0  0  0  0  0  0  0  0  0  0
    6.0000    1.5000    0.0000 C   0  0  0  0  0  0  0  0  0  0  0  0
    5.4669    0.7926    0.0000 F   0  0  0  0  0  0  0  0  0  0  0  0
    6.7500    2.7990    0.0000 F   0  0  0  0  0  0  0  0  0  0  0  0
    4.7010    2.2500    0.0000 C   0  0  0  0  0  0  0  0  0  0  0  0
    3.9510    0.9510    0.0000 F   0  0  0  0  0  0  0  0  0  0  0  0
    5.4510    3.5490    0.0000 F   0  0  0  0  0  0  0  0  0  0  0  0
    3.4019    3.0000    0.0000 C   0  0  0  0  0  0  0  0  0  0  0  0
    2.8159    1.6192    0.0000 F   0  0  0  0  0  0  0  0  0  0  0  0
    4.1519    4.2990    0.0000 F   0  0  0  0  0  0  0  0  0  0  0  0
    2.1029    3.7500    0.0000 C   0  0  0  0  0  0  0  0  0  0  0  0
    2.8529    5.0490    0.0000 F   0  0  0  0  0  0  0  0  0  0  0  0
    1.2001    2.5521    0.0000 F   0  0  0  0  0  0  0  0  0  0  0  0
    0.8038    4.5000    0.0000 C   0  0  0  0  0  0  0  0  0  0  0  0
    1.5538    5.7990    0.0000 F   0  0  0  0  0  0  0  0  0  0  0  0
    0.0538    3.2010    0.0000 F   0  0  0  0  0  0  0  0  0  0  0  0
   -0.4952    5.2500    0.0000 C   0  0  0  0  0  0  0  0  0  0  0  0
   -1.7942    6.0000    0.0000 F   0  0  0  0  0  0  0  0  0  0  0  0
   -1.2452    3.9510    0.0000 F   0  0  0  0  0  0  0  0  0  0  0  0
    0.2548    6.5490    0.0000 F   0  0  0  0  0  0  0  0  0  0  0  0
  1  2  1  0
  2  3  1  0
  2  4  1  0
  4  5  1  0
  5  6  1  0
  2  7  1  0
  7  8  1  0
  8  9  1  0
  9 10  1  0
 10 11  1  0
 11 12  1  0
 12 13  1  0
 13 14  1  0
 14 15  2  0
 14 16  2  0
 14 17  1  0
 10 18  1  0
 18 19  2  0
 18 20  2  0
 18 21  1  0
 21 22  1  0
 21 23  1  0
 21 24  1  0
 24 25  1  0
 24 26  1  0
 24 27  1  0
 27 28  1  0
 27 29  1  0
 27 30  1  0
 30 31  1  0
 30 32  1  0
 30 33  1  0
 33 34  1  0
 33 35  1  0
 33 36  1  0
 36 37  1  0
 36 38  1  0
 36 39  1  0
 39 40  1  0
 39 41  1  0
 39 42  1  0
M  CHG  2   2   1  17  -1
M  END
$$$$

     RDKit          2D

 23 22  0  0  0  0  0  0  0  0999 V2000
   -0.5490   -3.5490    0.0000 O   0  0  0  0  0  0  0  0  0  0  0  0
   -1.2990   -2.2500    0.0000 S   0  0  0  0  0  0  0  0  0  0  0  0
   -2.0490   -0.9510    0.0000 O   0  0  0  0  0  0  0  0  0  0  0  0
   -2.5981   -3.0000    0.0000 O   0  0  0  0  0  0  0  0  0  0  0  0
   -0.0000   -1.5000    0.0000 C   0  0  0  0  0  0  0  0  0  0  0  0
    1.2990   -2.2500    0.0000 O   0  0  0  0  0  0  0  0  0  0  0  0
   -0.0000    0.0000    0.0000 C   0  0  0  0  0  0  0  0  0  0  0  0
    1.2990    0.7500    0.0000 C   0  0  0  0  0  0  0  0  0  0  0  0
    2.0490   -0.5490    0.0000 F   0  0  0  0  0  0  0  0  0  0  0  0
    0.5490    2.0490    0.0000 F   0  0  0  0  0  0  0  0  0  0  0  0
    2.5981    1.5000    0.0000 C   0  0  0  0  0  0  0  0  0  0  0  0
    1.8481    2.7990    0.0000 F   0  0  0  0  0  0  0  0  0  0  0  0
    3.3481    0.2010    0.0000 F   0  0  0  0  0  0  0  0  0  0  0  0
    3.8971    2.2500    0.0000 C   0  0  0  0  0  0  0  0  0  0  0  0
    4.6471    0.9510    0.0000 F   0  0  0  0  0  0  0  0  0  0  0  0
    3.1471    3.5490    0.0000 F   0  0  0  0  0  0  0  0  0  0  0  0
    5.1962    3.0000    0.0000 C   0  0  0  0  0  0  0  0  0  0  0  0
    4.4462    4.2990    0.0000 F   0  0  0  0  0  0  0  0  0  0  0  0
    5.9462    1.7010    0.0000 F   0  0  0  0  0  0  0  0  0  0  0  0
    6.4952    3.7500    0.0000 C   0  0  0  0  0  0  0  0  0  0  0  0
    7.7942    4.5000    0.0000 F   0  0  0  0  0  0  0  0  0  0  0  0
    7.2452    2.4510    0.0000 F   0  0  0  0  0  0  0  0  0  0  0  0
    5.7452    5.0490    0.0000 F   0  0  0  0  0  0  0  0  0  0  0  0
  1  2  2  0
  2  3  2  0
  2  4  1  0
  2  5  1  0
  5  6  1  0
  5  7  1  0
  7  8  1  0
  8  9  1  0
  8 10  1  0
  8 11  1  0
 11 12  1  0
 11 13  1  0
 11 14  1  0
 14 15  1  0
 14 16  1  0
 14 17  1  0
 17 18  1  0
 17 19  1  0
 17 20  1  0
 20 21  1  0
 20 22  1  0
 20 23  1  0
M  END
$$$$

     RDKit          2D

 26 25  0  0  0  0  0  0  0  0999 V2000
   -0.5490   -3.5490    0.0000 O   0  0  0  0  0  0  0  0  0  0  0  0
   -1.2990   -2.2500    0.0000 S   0  0  0  0  0  0  0  0  0  0  0  0
   -2.0490   -0.9510    0.0000 O   0  0  0  0  0  0  0  0  0  0  0  0
   -2.5981   -3.0000    0.0000 O   0  0  0  0  0  0  0  0  0  0  0  0
   -0.0000   -1.5000    0.0000 C   0  0  0  0  0  0  0  0  0  0  0  0
    1.2990   -2.2500    0.0000 O   0  0  0  0  0  0  0  0  0  0  0  0
   -0.0000    0.0000    0.0000 C   0  0  0  0  0  0  0  0  0  0  0  0
    1.2990    0.7500    0.0000 C   0  0  0  0  0  0  0  0  0  0  0  0
    2.0490   -0.5490    0.0000 F   0  0  0  0  0  0  0  0  0  0  0  0
    0.5490    2.0490    0.0000 F   0  0  0  0  0  0  0  0  0  0  0  0
    2.5981    1.5000    0.0000 C   0  0  0  0  0  0  0  0  0  0  0  0
    1.8481    2.7990    0.0000 F   0  0  0  0  0  0  0  0  0  0  0  0
    3.3481    0.2010    0.0000 F   0  0  0  0  0  0  0  0  0  0  0  0
    3.8971    2.2500    0.0000 C   0  0  0  0  0  0  0  0  0  0  0  0
    4.6471    0.9510    0.0000 F   0  0  0  0  0  0  0  0  0  0  0  0
    3.1471    3.5490    0.0000 F   0  0  0  0  0  0  0  0  0  0  0  0
    5.1962    3.0000    0.0000 C   0  0  0  0  0  0  0  0  0  0  0  0
    4.4462    4.2990    0.0000 F   0  0  0  0  0  0  0  0  0  0  0  0
    5.9462    1.7010    0.0000 F   0  0  0  0  0  0  0  0  0  0  0  0
    6.4952    3.7500    0.0000 C   0  0  0  0  0  0  0  0  0  0  0  0
    7.2452    2.4510    0.0000 F   0  0  0  0  0  0  0  0  0  0  0  0
    5.7452    5.0490    0.0000 F   0  0  0  0  0  0  0  0  0  0  0  0
    7.7942    4.5000    0.0000 C   0  0  0  0  0  0  0  0  0  0  0  0
    9.0933    5.2500    0.0000 F   0  0  0  0  0  0  0  0  0  0  0  0
    7.0442    5.7990    0.0000 F   0  0  0  0  0  0  0  0  0  0  0  0
    8.5442    3.2010    0.0000 F   0  0  0  0  0  0  0  0  0  0  0  0
  1  2  2  0
  2  3  2  0
  2  4  1  0
  2  5  1  0
  5  6  1  0
  5  7  1  0
  7  8  1  0
  8  9  1  0
  8 10  1  0
  8 11  1  0
 11 12  1  0
 11 13  1  0
 11 14  1  0
 14 15  1  0
 14 16  1  0
 14 17  1  0
 17 18  1  0
 17 19  1  0
 17 20  1  0
 20 21  1  0
 20 22  1  0
 20 23  1  0
 23 24  1  0
 23 25  1  0
 23 26  1  0
M  CHG  1   4  -1
M  END
$$$$

     RDKit          2D

 31 30  0  0  0  0  0  0  0  0999 V2000
    1.2990    2.2500    0.0000 O   0  0  0  0  0  0  0  0  0  0  0  0
    1.2990    0.7500    0.0000 C   0  0  0  0  0  0  0  0  0  0  0  0
    2.5981   -0.0000    0.0000 O   0  0  0  0  0  0  0  0  0  0  0  0
    0.0000    0.0000    0.0000 C   0  0  0  0  0  0  0  0  0  0  0  0
   -1.2990    0.7500    0.0000 C   0  0  0  0  0  0  0  0  0  0  0  0
   -2.5981    0.0000    0.0000 S   0  0  0  0  0  0  0  0  0  0  0  0
   -3.8971    0.7500    0.0000 C   0  0  0  0  0  0  0  0  0  0  0  0
   -3.8971    2.2500    0.0000 C   0  0  0  0  0  0  0  0  0  0  0  0
   -5.1962    3.0000    0.0000 O   0  0  0  0  0  0  0  0  0  0  0  0
   -5.1962    0.0000    0.0000 C   0  0  0  0  0  0  0  0  0  0  0  0
   -6.4952    0.7500    0.0000 C   0  0  0  0  0  0  0  0  0  0  0  0
   -7.7942    0.0000    0.0000 O   0  0  0  0  0  0  0  0  0  0  0  0
   -5.1962   -1.5000    0.0000 C   0  0  0  0  0  0  0  0  0  0  0  0
   -6.6962   -1.5000    0.0000 F   0  0  0  0  0  0  0  0  0  0  0  0
   -3.6962   -1.5000    0.0000 F   0  0  0  0  0  0  0  0  0  0  0  0
   -5.1962   -3.0000    0.0000 C   0  0  0  0  0  0  0  0  0  0  0  0
   -3.6962   -3.0000    0.0000 F   0  0  0  0  0  0  0  0  0  0  0  0
   -6.6962   -3.0000    0.0000 F   0  0  0  0  0  0  0  0  0  0  0  0
   -5.1962   -4.5000    0.0000 C   0  0  0  0  0  0  0  0  0  0  0  0
   -6.6962   -4.5000    0.0000 F   0  0  0  0  0  0  0  0  0  0  0  0
   -3.6962   -4.5000    0.0000 F   0  0  0  0  0  0  0  0  0  0  0  0
   -5.1962   -6.0000    0.0000 C   0  0  0  0  0  0  0  0  0  0  0  0
   -3.6962   -6.0000    0.0000 F   0  0  0  0  0  0  0  0  0  0  0  0
   -6.6962   -6.0000    0.0000 F   0  0  0  0  0  0  0  0  0  0  0  0
   -5.1962   -7.5000    0.0000 C   0  0  0  0  0  0  0  0  0  0  0  0
   -6.6962   -7.5000    0.0000 F   0  0  0  0  0  0  0  0  0  0  0  0
   -3.6962   -7.5000    0.0000 F   0  0  0  0  0  0  0  0  0  0  0  0
   -5.1962   -9.0000    0.0000 C   0  0  0  0  0  0  0  0  0  0  0  0
   -5.1962  -10.5000    0.0000 F   0  0  0  0  0  0  0  0  0  0  0  0
   -3.6962   -9.0000    0.0000 F   0  0  0  0  0  0  0  0  0  0  0  0
   -6.6962   -9.0000    0.0000 F   0  0  0  0  0  0  0  0  0  0  0  0
  1  2  2  0
  2  3  1  0
  2  4  1  0
  4  5  1  0
  5  6  1  0
  6  7  1  0
  7  8  1  0
  8  9  1  0
  7 10  1  0
 10 11  1  0
 11 12  1  0
 10 13  1  0
 13 14  1  0
 13 15  1  0
 13 16  1  0
 16 17  1  0
 16 18  1  0
 16 19  1  0
 19 20  1  0
 19 21  1  0
 19 22  1  0
 22 23  1  0
 22 24  1  0
 22 25  1  0
 25 26  1  0
 25 27  1  0
 25 28  1  0
 28 29  1  0
 28 30  1  0
 28 31  1  0
M  END
$$$$

     RDKit          2D

 41 40  0  0  0  0  0  0  0  0999 V2000
   -0.5490   -3.5490    0.0000 O   0  0  0  0  0  0  0  0  0  0  0  0
   -1.2990   -2.2500    0.0000 S   0  0  0  0  0  0  0  0  0  0  0  0
   -2.0490   -0.9510    0.0000 O   0  0  0  0  0  0  0  0  0  0  0  0
   -2.5981   -3.0000    0.0000 O   0  0  0  0  0  0  0  0  0  0  0  0
   -0.0000   -1.5000    0.0000 C   0  0  0  0  0  0  0  0  0  0  0  0
    1.2990   -2.2500    0.0000 O   0  0  0  0  0  0  0  0  0  0  0  0
   -0.0000    0.0000    0.0000 C   0  0  0  0  0  0  0  0  0  0  0  0
    1.2990    0.7500    0.0000 C   0  0  0  0  0  0  0  0  0  0  0  0
    2.0490   -0.5490    0.0000 F   0  0  0  0  0  0  0  0  0  0  0  0
    0.5490    2.0490    0.0000 F   0  0  0  0  0  0  0  0  0  0  0  0
    2.5981    1.5000    0.0000 C   0  0  0  0  0  0  0  0  0  0  0  0
    1.8481    2.7990    0.0000 F   0  0  0  0  0  0  0  0  0  0  0  0
    3.3481    0.2010    0.0000 F   0  0  0  0  0  0  0  0  0  0  0  0
    3.8971    2.2500    0.0000 C   0  0  0  0  0  0  0  0  0  0  0  0
    4.6471    0.9510    0.0000 F   0  0  0  0  0  0  0  0  0  0  0  0
    3.1471    3.5490    0.0000 F   0  0  0  0  0  0  0  0  0  0  0  0
    5.1962    3.0000    0.0000 C   0  0  0  0  0  0  0  0  0  0  0  0
    4.4462    4.2990    0.0000 F   0  0  0  0  0  0  0  0  0  0  0  0
    5.9462    1.7010    0.0000 F   0  0  0  0  0  0  0  0  0  0  0  0
    6.4952    3.7500    0.0000 C   0  0  0  0  0  0  0  0  0  0  0  0
    7.2452    2.4510    0.0000 F   0  0  0  0  0  0  0  0  0  0  0  0
    5.7452    5.0490    0.0000 F   0  0  0  0  0  0  0  0  0  0  0  0
    7.7942    4.5000    0.0000 C   0  0  0  0  0  0  0  0  0  0  0  0
    7.0442    5.7990    0.0000 F   0  0  0  0  0  0  0  0  0  0  0  0
    8.5442    3.2010    0.0000 F   0  0  0  0  0  0  0  0  0  0  0  0
    9.0933    5.2500    0.0000 C   0  0  0  0  0  0  0  0  0  0  0  0
    9.8433    3.9510    0.0000 F   0  0  0  0  0  0  0  0  0  0  0  0
    8.3433    6.5490    0.0000 F   0  0  0  0  0  0  0  0  0  0  0  0
   10.3923    6.0000    0.0000 C   0  0  0  0  0  0  0  0  0  0  0  0
    9.6423    7.2990    0.0000 F   0  0  0  0  0  0  0  0  0  0  0  0
   11.1423    4.7010    0.0000 F   0  0  0  0  0  0  0  0  0  0  0  0
   11.6913    6.7500    0.0000 C   0  0  0  0  0  0  0  0  0  0  0  0
   12.4413    5.4510    0.0000 F   0  0  0  0  0  0  0  0  0  0  0  0
   10.9413    8.0490    0.0000 F   0  0  0  0  0  0  0  0  0  0  0  0
   12.9904    7.5000    0.0000 C   0  0  0  0  0  0  0  0  0  0  0  0
   12.2404    8.7990    0.0000 F   0  0  0  0  0  0  0  0  0  0  0  0
   13.7404    6.2010    0.0000 F   0  0  0  0  0  0  0  0  0  0  0  0
   14.2894    8.2500    0.0000 C   0  0  0  0  0  0  0  0  0  0  0  0
   15.5885    9.0000    0.0000 F   0  0  0  0  0  0  0  0  0  0  0  0
   15.0394    6.9510    0.0000 F   0  0  0  0  0  0  0  0  0  0  0  0
   13.5394    9.5490    0.0000 F   0  0  0  0  0  0  0  0  0  0  0  0
  1  2  2  0
  2  3  2  0
  2  4  1  0
  2  5  1  0
  5  6  1  0
  5  7  1  0
  7  8  1  0
  8  9  1  0
  8 10  1  0
  8 11  1  0
 11 12  1  0
 11 13  1  0
 11 14  1  0
 14 15  1  0
 14 16  1  0
 14 17  1  0
 17 18  1  0
 17 19  1  0
 17 20  1  0
 20 21  1  0
 20 22  1  0
 20 23  1  0
 23 24  1  0
 23 25  1  0
 23 26  1  0
 26 27  1  0
 26 28  1  0
 26 29  1  0
 29 30  1  0
 29 31  1  0
 29 32  1  0
 32 33  1  0
 32 34  1  0
 32 35  1  0
 35 36  1  0
 35 37  1  0
 35 38  1  0
 38 39  1  0
 38 40  1  0
 38 41  1  0
M  END
$$$$

     RDKit          2D

 39 38  0  0  0  0  0  0  0  0999 V2000
    1.2990    2.2500    0.0000 O   0  0  0  0  0  0  0  0  0  0  0  0
    1.2990    0.7500    0.0000 C   0  0  0  0  0  0  0  0  0  0  0  0
    0.0000    0.0000    0.0000 C   0  0  0  0  0  0  0  0  0  0  0  0
   -1.2990    0.7500    0.0000 C   0  0  0  0  0  0  0  0  0  0  0  0
   -2.0490   -0.5490    0.0000 F   0  0  0  0  0  0  0  0  0  0  0  0
   -0.5490    2.0490    0.0000 F   0  0  0  0  0  0  0  0  0  0  0  0
   -2.5981    1.5000    0.0000 C   0  0  0  0  0  0  0  0  0  0  0  0
   -1.8481    2.7990    0.0000 F   0  0  0  0  0  0  0  0  0  0  0  0
   -3.3481    0.2010    0.0000 F   0  0  0  0  0  0  0  0  0  0  0  0
   -3.8971    2.2500    0.0000 C   0  0  0  0  0  0  0  0  0  0  0  0
   -4.6471    0.9510    0.0000 F   0  0  0  0  0  0  0  0  0  0  0  0
   -3.1471    3.5490    0.0000 F   0  0  0  0  0  0  0  0  0  0  0  0
   -5.1962    3.0000    0.0000 C   0  0  0  0  0  0  0  0  0  0  0  0
   -4.4462    4.2990    0.0000 F   0  0  0  0  0  0  0  0  0  0  0  0
   -5.9462    1.7010    0.0000 F   0  0  0  0  0  0  0  0  0  0  0  0
   -6.4952    3.7500    0.0000 C   0  0  0  0  0  0  0  0  0  0  0  0
   -7.2452    2.4510    0.0000 F   0  0  0  0  0  0  0  0  0  0  0  0
   -5.7452    5.0490    0.0000 F   0  0  0  0  0  0  0  0  0  0  0  0
   -7.7942    4.5000    0.0000 C   0  0  0  0  0  0  0  0  0  0  0  0
   -7.0442    5.7990    0.0000 F   0  0  0  0  0  0  0  0  0  0  0  0
   -8.5442    3.2010    0.0000 F   0  0  0  0  0  0  0  0  0  0  0  0
   -9.0933    5.2500    0.0000 C   0  0  0  0  0  0  0  0  0  0  0  0
   -9.8433    3.9510    0.0000 F   0  0  0  0  0  0  0  0  0  0  0  0
   -8.3433    6.5490    0.0000 F   0  0  0  0  0  0  0  0  0  0  0  0
  -10.3923    6.0000    0.0000 C   0  0  0  0  0  0  0  0  0  0  0  0
   -9.6423    7.2990    0.0000 F   0  0  0  0  0  0  0  0  0  0  0  0
  -11.1423    4.7010    0.0000 F   0  0  0  0  0  0  0  0  0  0  0  0
  -11.6913    6.7500    0.0000 C   0  0  0  0  0  0  0  0  0  0  0  0
  -12.4413    5.4510    0.0000 F   0  0  0  0  0  0  0  0  0  0  0  0
  -10.9413    8.0490    0.0000 F   0  0  0  0  0  0  0  0  0  0  0  0
  -12.9904    7.5000    0.0000 C   0  0  0  0  0  0  0  0  0  0  0  0
  -14.2894    8.2500    0.0000 F   0  0  0  0  0  0  0  0  0  0  0  0
  -12.2404    8.7990    0.0000 F   0  0  0  0  0  0  0  0  0  0  0  0
  -13.7404    6.2010    0.0000 F   0  0  0  0  0  0  0  0  0  0  0  0
    2.5981   -0.0000    0.0000 C   0  0  0  0  0  0  0  0  0  0  0  0
    3.8971    0.7500    0.0000 S   0  0  0  0  0  0  0  0  0  0  0  0
    4.6471   -0.5490    0.0000 O   0  0  0  0  0  0  0  0  0  0  0  0
    3.1471    2.0490    0.0000 O   0  0  0  0  0  0  0  0  0  0  0  0
    5.1962    1.5000    0.0000 O   0  0  0  0  0  0  0  0  0  0  0  0
  1  2  2  0
  2  3  1  0
  3  4  1  0
  4  5  1  0
  4  6  1  0
  4  7  1  0
  7  8  1  0
  7  9  1  0
  7 10  1  0
 10 11  1  0
 10 12  1  0
 10 13  1  0
 13 14  1  0
 13 15  1  0
 13 16  1  0
 16 17  1  0
 16 18  1  0
 16 19  1  0
 19 20  1  0
 19 21  1  0
 19 22  1  0
 22 23  1  0
 22 24  1  0
 22 25  1  0
 25 26  1  0
 25 27  1  0
 25 28  1  0
 28 29  1  0
 28 30  1  0
 28 31  1  0
 31 32  1  0
 31 33  1  0
 31 34  1  0
  2 35  1  0
 35 36  1  0
 36 37  2  0
 36 38  2  0
 36 39  1  0
M  END
$$$$

     RDKit          2D

 32 31  0  0  0  0  0  0  0  0999 V2000
   -1.8481   -1.2990    0.0000 O   0  0  0  0  0  0  0  0  0  0  0  0
   -2.5981    0.0000    0.0000 S   0  0  0  0  0  0  0  0  0  0  0  0
   -3.3481    1.2990    0.0000 O   0  0  0  0  0  0  0  0  0  0  0  0
   -3.8971   -0.7500    0.0000 O   0  0  0  0  0  0  0  0  0  0  0  0
   -1.2990    0.7500    0.0000 O   0  0  0  0  0  0  0  0  0  0  0  0
    0.0000    0.0000    0.0000 C   0  0  0  0  0  0  0  0  0  0  0  0
    1.2990    0.7500    0.0000 C   0  0  0  0  0  0  0  0  0  0  0  0
    2.5981   -0.0000    0.0000 C   0  0  0  0  0  0  0  0  0  0  0  0
    3.3481    1.2990    0.0000 F   0  0  0  0  0  0  0  0  0  0  0  0
    1.8481   -1.2990    0.0000 F   0  0  0  0  0  0  0  0  0  0  0  0
    3.8971   -0.7500    0.0000 C   0  0  0  0  0  0  0  0  0  0  0  0
    3.1471   -2.0490    0.0000 F   0  0  0  0  0  0  0  0  0  0  0  0
    4.6471    0.5490    0.0000 F   0  0  0  0  0  0  0  0  0  0  0  0
    5.1962   -1.5000    0.0000 C   0  0  0  0  0  0  0  0  0  0  0  0
    5.9462   -0.2010    0.0000 F   0  0  0  0  0  0  0  0  0  0  0  0
    4.4462   -2.7990    0.0000 F   0  0  0  0  0  0  0  0  0  0  0  0
    6.4952   -2.2500    0.0000 C   0  0  0  0  0  0  0  0  0  0  0  0
    5.7452   -3.5490    0.0000 F   0  0  0  0  0  0  0  0  0  0  0  0
    7.2452   -0.9510    0.0000 F   0  0  0  0  0  0  0  0  0  0  0  0
    7.7942   -3.0000    0.0000 C   0  0  0  0  0  0  0  0  0  0  0  0
    8.5442   -1.7010    0.0000 F   0  0  0  0  0  0  0  0  0  0  0  0
    7.0442   -4.2990    0.0000 F   0  0  0  0  0  0  0  0  0  0  0  0
    9.0933   -3.7500    0.0000 C   0  0  0  0  0  0  0  0  0  0  0  0
    8.3433   -5.0490    0.0000 F   0  0  0  0  0  0  0  0  0  0  0  0
    9.8433   -2.4510    0.0000 F   0  0  0  0  0  0  0  0  0  0  0  0
   10.3923   -4.5000    0.0000 C   0  0  0  0  0  0  0  0  0  0  0  0
   11.1423   -3.2010    0.0000 F   0  0  0  0  0  0  0  0  0  0  0  0
    9.6423   -5.7990    0.0000 F   0  0  0  0  0  0  0  0  0  0  0  0
   11.6913   -5.2500    0.0000 C   0  0  0  0  0  0  0  0  0  0  0  0
   12.9904   -6.0000    0.0000 F   0  0  0  0  0  0  0  0  0  0  0  0
   10.9413   -6.5490    0.0000 F   0  0  0  0  0  0  0  0  0  0  0  0
   12.4413   -3.9510    0.0000 F   0  0  0  0  0  0  0  0  0  0  0  0
  1  2  2  0
  2  3  2  0
  2  4  1  0
  2  5  1  0
  5  6  1  0
  6  7  1  0
  7  8  1  0
  8  9  1  0
  8 10  1  0
  8 11  1  0
 11 12  1  0
 11 13  1  0
 11 14  1  0
 14 15  1  0
 14 16  1  0
 14 17  1  0
 17 18  1  0
 17 19  1  0
 17 20  1  0
 20 21  1  0
 20 22  1  0
 20 23  1  0
 23 24  1  0
 23 25  1  0
 23 26  1  0
 26 27  1  0
 26 28  1  0
 26 29  1  0
 29 30  1  0
 29 31  1  0
 29 32  1  0
M  END
$$$$

     RDKit          2D

 30 29  0  0  0  0  0  0  0  0999 V2000
    0.0000    0.0000    0.0000 C   0  0  0  0  0  0  0  0  0  0  0  0
    1.2990    0.7500    0.0000 N   0  0  0  0  0  0  0  0  0  0  0  0
    2.5981   -0.0000    0.0000 C   0  0  0  0  0  0  0  0  0  0  0  0
    3.8971    0.7500    0.0000 C   0  0  0  0  0  0  0  0  0  0  0  0
    5.1962   -0.0000    0.0000 C   0  0  0  0  0  0  0  0  0  0  0  0
    6.4952    0.7500    0.0000 N   0  0  0  0  0  0  0  0  0  0  0  0
    7.7942   -0.0000    0.0000 S   0  0  0  0  0  0  0  0  0  0  0  0
    7.0442   -1.2990    0.0000 O   0  0  0  0  0  0  0  0  0  0  0  0
    8.5442    1.2990    0.0000 O   0  0  0  0  0  0  0  0  0  0  0  0
    9.0933   -0.7500    0.0000 C   0  0  0  0  0  0  0  0  0  0  0  0
    9.0933   -2.2500    0.0000 C   0  0  0  0  0  0  0  0  0  0  0  0
   10.3923   -3.0000    0.0000 C   0  0  0  0  0  0  0  0  0  0  0  0
    9.6423   -4.2990    0.0000 F   0  0  0  0  0  0  0  0  0  0  0  0
   11.1423   -1.7010    0.0000 F   0  0  0  0  0  0  0  0  0  0  0  0
   11.6913   -3.7500    0.0000 C   0  0  0  0  0  0  0  0  0  0  0  0
   12.4413   -2.4510    0.0000 F   0  0  0  0  0  0  0  0  0  0  0  0
   10.9413   -5.0490    0.0000 F   0  0  0  0  0  0  0  0  0  0  0  0
   12.9904   -4.5000    0.0000 C   0  0  0  0  0  0  0  0  0  0  0  0
   12.2404   -5.7990    0.0000 F   0  0  0  0  0  0  0  0  0  0  0  0
   13.7404   -3.2010    0.0000 F   0  0  0  0  0  0  0  0  0  0  0  0
   14.2894   -5.2500    0.0000 C   0  0  0  0  0  0  0  0  0  0  0  0
   15.0394   -3.9510    0.0000 F   0  0  0  0  0  0  0  0  0  0  0  0
   13.5394   -6.5490    0.0000 F   0  0  0  0  0  0  0  0  0  0  0  0
   15.5885   -6.0000    0.0000 C   0  0  0  0  0  0  0  0  0  0  0  0
   14.8385   -7.2990    0.0000 F   0  0  0  0  0  0  0  0  0  0  0  0
   16.3385   -4.7010    0.0000 F   0  0  0  0  0  0  0  0  0  0  0  0
   16.8875   -6.7500    0.0000 C   0  0  0  0  0  0  0  0  0  0  0  0
   18.1865   -7.5000    0.0000 F   0  0  0  0  0  0  0  0  0  0  0  0
   17.6375   -5.4510    0.0000 F   0  0  0  0  0  0  0  0  0  0  0  0
   16.1375   -8.0490    0.0000 F   0  0  0  0  0  0  0  0  0  0  0  0
  1  2  1  0
  2  3  1  0
  3  4  1  0
  4  5  1  0
  5  6  1  0
  6  7  1  0
  7  8  2  0
  7  9  2  0
  7 10  1  0
 10 11  1  0
 11 12  1  0
 12 13  1  0
 12 14  1  0
 12 15  1  0
 15 16  1  0
 15 17  1  0
 15 18  1  0
 18 19  1  0
 18 20  1  0
 18 21  1  0
 21 22  1  0
 21 23  1  0
 21 24  1  0
 24 25  1  0
 24 26  1  0
 24 27  1  0
 27 28  1  0
 27 29  1  0
 27 30  1  0
M  END
$$$$

     RDKit          2D

 16 15  0  0  0  0  0  0  0  0999 V2000
    0.0000    0.0000    0.0000 C   0  0  0  0  0  0  0  0  0  0  0  0
    1.2990    0.7500    0.0000 N   0  0  0  0  0  0  0  0  0  0  0  0
    2.5981   -0.0000    0.0000 C   0  0  0  0  0  0  0  0  0  0  0  0
    1.2990    2.2500    0.0000 C   0  0  0  0  0  0  0  0  0  0  0  0
    2.5981    3.0000    0.0000 C   0  0  0  0  0  0  0  0  0  0  0  0
    2.5981    4.5000    0.0000 C   0  0  0  0  0  0  0  0  0  0  0  0
    3.8971    5.2500    0.0000 N   0  0  0  0  0  0  0  0  0  0  0  0
    3.8971    6.7500    0.0000 C   0  0  0  0  0  0  0  0  0  0  0  0
    2.5981    7.5000    0.0000 O   0  0  0  0  0  0  0  0  0  0  0  0
    5.1962    7.5000    0.0000 C   0  0  0  0  0  0  0  0  0  0  0  0
    4.4462    8.7990    0.0000 F   0  0  0  0  0  0  0  0  0  0  0  0
    5.9462    6.2010    0.0000 F   0  0  0  0  0  0  0  0  0  0  0  0
    6.4952    8.2500    0.0000 C   0  0  0  0  0  0  0  0  0  0  0  0
    7.7942    9.0000    0.0000 F   0  0  0  0  0  0  0  0  0  0  0  0
    7.2452    6.9510    0.0000 F   0  0  0  0  0  0  0  0  0  0  0  0
    5.7452    9.5490    0.0000 F   0  0  0  0  0  0  0  0  0  0  0  0
  1  2  1  0
  2  3  1  0
  2  4  1  0
  4  5  1  0
  5  6  1  0
  6  7  1  0
  7  8  1  0
  8  9  2  0
  8 10  1  0
 10 11  1  0
 10 12  1  0
 10 13  1  0
 13 14  1  0
 13 15  1  0
 13 16  1  0
M  END
$$$$

     RDKit          2D

 35 34  0  0  0  0  0  0  0  0999 V2000
   -1.2990    0.7500    0.0000 N   0  0  0  0  0  0  0  0  0  0  0  0
    0.0000    0.0000    0.0000 C   0  0  0  0  0  0  0  0  0  0  0  0
    1.2990    0.7500    0.0000 C   0  0  0  0  0  0  0  0  0  0  0  0
    2.5981   -0.0000    0.0000 C   0  0  0  0  0  0  0  0  0  0  0  0
    3.8971    0.7500    0.0000 N   0  0  0  0  0  0  0  0  0  0  0  0
    5.1962   -0.0000    0.0000 S   0  0  0  0  0  0  0  0  0  0  0  0
    4.4462   -1.2990    0.0000 O   0  0  0  0  0  0  0  0  0  0  0  0
    5.9462    1.2990    0.0000 O   0  0  0  0  0  0  0  0  0  0  0  0
    6.4952   -0.7500    0.0000 C   0  0  0  0  0  0  0  0  0  0  0  0
    6.4952   -2.2500    0.0000 C   0  0  0  0  0  0  0  0  0  0  0  0
    7.7942   -3.0000    0.0000 C   0  0  0  0  0  0  0  0  0  0  0  0
    7.0442   -4.2990    0.0000 F   0  0  0  0  0  0  0  0  0  0  0  0
    8.5442   -1.7010    0.0000 F   0  0  0  0  0  0  0  0  0  0  0  0
    9.0933   -3.7500    0.0000 C   0  0  0  0  0  0  0  0  0  0  0  0
    9.8433   -2.4510    0.0000 F   0  0  0  0  0  0  0  0  0  0  0  0
    8.3433   -5.0490    0.0000 F   0  0  0  0  0  0  0  0  0  0  0  0
   10.3923   -4.5000    0.0000 C   0  0  0  0  0  0  0  0  0  0  0  0
    9.6423   -5.7990    0.0000 F   0  0  0  0  0  0  0  0  0  0  0  0
   11.1423   -3.2010    0.0000 F   0  0  0  0  0  0  0  0  0  0  0  0
   11.6913   -5.2500    0.0000 C   0  0  0  0  0  0  0  0  0  0  0  0
   12.4413   -3.9510    0.0000 F   0  0  0  0  0  0  0  0  0  0  0  0
   10.9413   -6.5490    0.0000 F   0  0  0  0  0  0  0  0  0  0  0  0
   12.9904   -6.0000    0.0000 C   0  0  0  0  0  0  0  0  0  0  0  0
   12.2404   -7.2990    0.0000 F   0  0  0  0  0  0  0  0  0  0  0  0
   13.7404   -4.7010    0.0000 F   0  0  0  0  0  0  0  0  0  0  0  0
   14.2894   -6.7500    0.0000 C   0  0  0  0  0  0  0  0  0  0  0  0
   15.0394   -5.4510    0.0000 F   0  0  0  0  0  0  0  0  0  0  0  0
   13.5394   -8.0490    0.0000 F   0  0  0  0  0  0  0  0  0  0  0  0
   15.5885   -7.5000    0.0000 C   0  0  0  0  0  0  0  0  0  0  0  0
   14.8385   -8.7990    0.0000 F   0  0  0  0  0  0  0  0  0  0  0  0
   16.3385   -6.2010    0.0000 F   0  0  0  0  0  0  0  0  0  0  0  0
   16.8875   -8.2500    0.0000 C   0  0  0  0  0  0  0  0  0  0  0  0
   18.1865   -9.0000    0.0000 F   0  0  0  0  0  0  0  0  0  0  0  0
   17.6375   -6.9510    0.0000 F   0  0  0  0  0  0  0  0  0  0  0  0
   16.1375   -9.5490    0.0000 F   0  0  0  0  0  0  0  0  0  0  0  0
  1  2  1  0
  2  3  1  0
  3  4  1  0
  4  5  1  0
  5  6  1  0
  6  7  2  0
  6  8  2  0
  6  9  1  0
  9 10  1  0
 10 11  1  0
 11 12  1  0
 11 13  1  0
 11 14  1  0
 14 15  1  0
 14 16  1  0
 14 17  1  0
 17 18  1  0
 17 19  1  0
 17 20  1  0
 20 21  1  0
 20 22  1  0
 20 23  1  0
 23 24  1  0
 23 25  1  0
 23 26  1  0
 26 27  1  0
 26 28  1  0
 26 29  1  0
 29 30  1  0
 29 31  1  0
 29 32  1  0
 32 33  1  0
 32 34  1  0
 32 35  1  0
M  END
$$$$

     RDKit          2D

 40 39  0  0  0  0  0  0  0  0999 V2000
   16.8875    9.7500    0.0000 F   0  0  0  0  0  0  0  0  0  0  0  0
   15.5885    9.0000    0.0000 C   0  0  0  0  0  0  0  0  0  0  0  0
   14.8385   10.2990    0.0000 F   0  0  0  0  0  0  0  0  0  0  0  0
   16.3385    7.7010    0.0000 F   0  0  0  0  0  0  0  0  0  0  0  0
   14.2894    8.2500    0.0000 C   0  0  0  0  0  0  0  0  0  0  0  0
   15.0394    6.9510    0.0000 F   0  0  0  0  0  0  0  0  0  0  0  0
   13.5394    9.5490    0.0000 F   0  0  0  0  0  0  0  0  0  0  0  0
   12.9904    7.5000    0.0000 C   0  0  0  0  0  0  0  0  0  0  0  0
   12.2404    8.7990    0.0000 F   0  0  0  0  0  0  0  0  0  0  0  0
   13.7404    6.2010    0.0000 F   0  0  0  0  0  0  0  0  0  0  0  0
   11.6913    6.7500    0.0000 C   0  0  0  0  0  0  0  0  0  0  0  0
   12.4413    5.4510    0.0000 F   0  0  0  0  0  0  0  0  0  0  0  0
   10.9413    8.0490    0.0000 F   0  0  0  0  0  0  0  0  0  0  0  0
   10.3923    6.0000    0.0000 C   0  0  0  0  0  0  0  0  0  0  0  0
    9.6423    7.2990    0.0000 F   0  0  0  0  0  0  0  0  0  0  0  0
   11.1423    4.7010    0.0000 F   0  0  0  0  0  0  0  0  0  0  0  0
    9.0933    5.2500    0.0000 C   0  0  0  0  0  0  0  0  0  0  0  0
    9.8433    3.9510    0.0000 F   0  0  0  0  0  0  0  0  0  0  0  0
    8.3433    6.5490    0.0000 F   0  0  0  0  0  0  0  0  0  0  0  0
    7.7942    4.5000    0.0000 C   0  0  0  0  0  0  0  0  0  0  0  0
    7.0442    5.7990    0.0000 F   0  0  0  0  0  0  0  0  0  0  0  0
    8.5442    3.2010    0.0000 F   0  0  0  0  0  0  0  0  0  0  0  0
    6.4952    3.7500    0.0000 C   0  0  0  0  0  0  0  0  0  0  0  0
    7.2452    2.4510    0.0000 F   0  0  0  0  0  0  0  0  0  0  0  0
    5.7452    5.0490    0.0000 F   0  0  0  0  0  0  0  0  0  0  0  0
    5.1962    3.0000    0.0000 C   0  0  0  0  0  0  0  0  0  0  0  0
    4.4462    4.2990    0.0000 F   0  0  0  0  0  0  0  0  0  0  0  0
    5.9462    1.7010    0.0000 F   0  0  0  0  0  0  0  0  0  0  0  0
    3.8971    2.2500    0.0000 C   0  0  0  0  0  0  0  0  0  0  0  0
    4.6471    0.9510    0.0000 F   0  0  0  0  0  0  0  0  0  0  0  0
    3.1471    3.5490    0.0000 F   0  0  0  0  0  0  0  0  0  0  0  0
    2.5981    1.5000    0.0000 C   0  0  0  0  0  0  0  0  0  0  0  0
    1.8481    2.7990    0.0000 F   0  0  0  0  0  0  0  0  0  0  0  0
    3.3481    0.2010    0.0000 F   0  0  0  0  0  0  0  0  0  0  0  0
    1.2990    0.7500    0.0000 C   0  0  0  0  0  0  0  0  0  0  0  0
    2.0490   -0.5490    0.0000 F   0  0  0  0  0  0  0  0  0  0  0  0
    0.5490    2.0490    0.0000 F   0  0  0  0  0  0  0  0  0  0  0  0
    0.0000    0.0000    0.0000 C   0  0  0  0  0  0  0  0  0  0  0  0
   -1.2990    0.7500    0.0000 C   0  0  0  0  0  0  0  0  0  0  0  0
   -2.5981    0.0000    0.0000 S   0  0  0  0  0  0  0  0  0  0  0  0
  1  2  1  0
  2  3  1  0
  2  4  1  0
  2  5  1  0
  5  6  1  0
  5  7  1  0
  5  8  1  0
  8  9  1  0
  8 10  1  0
  8 11  1  0
 11 12  1  0
 11 13  1  0
 11 14  1  0
 14 15  1  0
 14 16  1  0
 14 17  1  0
 17 18  1  0
 17 19  1  0
 17 20  1  0
 20 21  1  0
 20 22  1  0
 20 23  1  0
 23 24  1  0
 23 25  1  0
 23 26  1  0
 26 27  1  0
 26 28  1  0
 26 29  1  0
 29 30  1  0
 29 31  1  0
 29 32  1  0
 32 33  1  0
 32 34  1  0
 32 35  1  0
 35 36  1  0
 35 37  1  0
 35 38  1  0
 38 39  1  0
 39 40  1  0
M  END
$$$$

     RDKit          2D

 50 49  0  0  0  0  0  0  0  0999 V2000
    7.7942   16.5000    0.0000 C   0  0  0  0  0  0  0  0  0  0  0  0
    6.4952   15.7500    0.0000 N   0  0  0  0  0  0  0  0  0  0  0  0
    5.1962   16.5000    0.0000 C   0  0  0  0  0  0  0  0  0  0  0  0
    6.4952   14.2500    0.0000 C   0  0  0  0  0  0  0  0  0  0  0  0
    5.1962   13.5000    0.0000 C   0  0  0  0  0  0  0  0  0  0  0  0
    5.1962   12.0000    0.0000 C   0  0  0  0  0  0  0  0  0  0  0  0
    3.8971   11.2500    0.0000 N   0  0  0  0  0  0  0  0  0  0  0  0
    3.8971    9.7500    0.0000 S   0  0  0  0  0  0  0  0  0  0  0  0
    5.3971    9.7500    0.0000 O   0  0  0  0  0  0  0  0  0  0  0  0
    3.1059    9.8472    0.0000 O   0  0  0  0  0  0  0  0  0  0  0  0
    3.8971    8.2500    0.0000 C   0  0  0  0  0  0  0  0  0  0  0  0
    5.3971    8.2500    0.0000 F   0  0  0  0  0  0  0  0  0  0  0  0
    3.8971    6.7500    0.0000 F   0  0  0  0  0  0  0  0  0  0  0  0
    2.3971    8.2500    0.0000 C   0  0  0  0  0  0  0  0  0  0  0  0
    2.3971    6.7500    0.0000 F   0  0  0  0  0  0  0  0  0  0  0  0
    2.2891    9.1291    0.0000 F   0  0  0  0  0  0  0  0  0  0  0  0
    0.8971    8.2500    0.0000 C   0  0  0  0  0  0  0  0  0  0  0  0
    0.8971    6.7500    0.0000 F   0  0  0  0  0  0  0  0  0  0  0  0
    0.8971    9.7500    0.0000 F   0  0  0  0  0  0  0  0  0  0  0  0
   -0.6029    8.2500    0.0000 C   0  0  0  0  0  0  0  0  0  0  0  0
   -0.6029    9.7500    0.0000 F   0  0  0  0  0  0  0  0  0  0  0  0
   -0.6029    6.7500    0.0000 F   0  0  0  0  0  0  0  0  0  0  0  0
   -2.1029    8.2500    0.0000 C   0  0  0  0  0  0  0  0  0  0  0  0
   -2.1029    6.7500    0.0000 F   0  0  0  0  0  0  0  0  0  0  0  0
   -2.1029    9.7500    0.0000 F   0  0  0  0  0  0  0  0  0  0  0  0
   -3.6029    8.2500    0.0000 C   0  0  0  0  0  0  0  0  0  0  0  0
   -3.6029    9.7500    0.0000 F   0  0  0  0  0  0  0  0  0  0  0  0
   -3.6029    6.7500    0.0000 F   0  0  0  0  0  0  0  0  0  0  0  0
   -5.1029    8.2500    0.0000 C   0  0  0  0  0  0  0  0  0  0  0  0
   -5.1029    6.7500    0.0000 F   0  0  0  0  0  0  0  0  0  0  0  0
   -5.1029    9.7500    0.0000 F   0  0  0  0  0  0  0  0  0  0  0  0
   -6.6029    8.2500    0.0000 C   0  0  0  0  0  0  0  0  0  0  0  0
   -6.6029    6.7500    0.0000 F   0  0  0  0  0  0  0  0  0  0  0  0
   -6.6029    9.7500    0.0000 F   0  0  0  0  0  0  0  0  0  0  0  0
   -8.1029    8.2500    0.0000 C   0  0  0  0  0  0  0  0  0  0  0  0
   -8.1029    9.7500    0.0000 F   0  0  0  0  0  0  0  0  0  0  0  0
   -8.1029    6.7500    0.0000 F   0  0  0  0  0  0  0  0  0  0  0  0
   -9.6029    8.2500    0.0000 C   0  0  0  0  0  0  0  0  0  0  0  0
   -9.6029    6.7500    0.0000 F   0  0  0  0  0  0  0  0  0  0  0  0
   -9.6029    9.7500    0.0000 F   0  0  0  0  0  0  0  0  0  0  0  0
  -11.1029    8.2500    0.0000 C   0  0  0  0  0  0  0  0  0  0  0  0
  -11.1029    9.7500    0.0000 F   0  0  0  0  0  0  0  0  0  0  0  0
  -11.1029    6.7500    0.0000 F   0  0  0  0  0  0  0  0  0  0  0  0
  -12.6029    8.2500    0.0000 C   0  0  0  0  0  0  0  0  0  0  0  0
  -12.6029    6.7500    0.0000 F   0  0  0  0  0  0  0  0  0  0  0  0
  -12.6029    9.7500    0.0000 F   0  0  0  0  0  0  0  0  0  0  0  0
  -14.1029    8.2500    0.0000 C   0  0  0  0  0  0  0  0  0  0  0  0
  -15.6029    8.2500    0.0000 F   0  0  0  0  0  0  0  0  0  0  0  0
  -14.1029    9.7500    0.0000 F   0  0  0  0  0  0  0  0  0  0  0  0
  -14.1029    6.7500    0.0000 F   0  0  0  0  0  0  0  0  0  0  0  0
  1  2  1  0
  2  3  1  0
  2  4  1  0
  4  5  1  0
  5  6  1  0
  6  7  1  0
  7  8  1  0
  8  9  2  0
  8 10  2  0
  8 11  1  0
 11 12  1  0
 11 13  1  0
 11 14  1  0
 14 15  1  0
 14 16  1  0
 14 17  1  0
 17 18  1  0
 17 19  1  0
 17 20  1  0
 20 21  1  0
 20 22  1  0
 20 23  1  0
 23 24  1  0
 23 25  1  0
 23 26  1  0
 26 27  1  0
 26 28  1  0
 26 29  1  0
 29 30  1  0
 29 31  1  0
 29 32  1  0
 32 33  1  0
 32 34  1  0
 32 35  1  0
 35 36  1  0
 35 37  1  0
 35 38  1  0
 38 39  1  0
 38 40  1  0
 38 41  1  0
 41 42  1  0
 41 43  1  0
 41 44  1  0
 44 45  1  0
 44 46  1  0
 44 47  1  0
 47 48  1  0
 47 49  1  0
 47 50  1  0
M  END
$$$$

     RDKit          2D

 32 31  0  0  0  0  0  0  0  0999 V2000
    0.0000    0.0000    0.0000 C   0  0  0  0  0  0  0  0  0  0  0  0
    1.2990    0.7500    0.0000 C   0  0  0  0  0  0  0  0  0  0  0  0
    2.5981   -0.0000    0.0000 C   0  0  0  0  0  0  0  0  0  0  0  0
    1.2990    2.2500    0.0000 O   0  0  0  0  0  0  0  0  0  0  0  0
    2.5981    3.0000    0.0000 C   0  0  0  0  0  0  0  0  0  0  0  0
    3.8971    2.2500    0.0000 O   0  0  0  0  0  0  0  0  0  0  0  0
    2.5981    4.5000    0.0000 C   0  0  0  0  0  0  0  0  0  0  0  0
    3.8971    5.2500    0.0000 N   0  0  0  0  0  0  0  0  0  0  0  0
    3.1471    6.5490    0.0000 C   0  0  0  0  0  0  0  0  0  0  0  0
    4.6471    3.9510    0.0000 C   0  0  0  0  0  0  0  0  0  0  0  0
    5.1962    6.0000    0.0000 C   0  0  0  0  0  0  0  0  0  0  0  0
    6.4952    5.2500    0.0000 C   0  0  0  0  0  0  0  0  0  0  0  0
    7.7942    6.0000    0.0000 C   0  0  0  0  0  0  0  0  0  0  0  0
    9.0933    5.2500    0.0000 N   0  0  0  0  0  0  0  0  0  0  0  0
   10.3923    6.0000    0.0000 C   0  0  0  0  0  0  0  0  0  0  0  0
   10.3923    7.5000    0.0000 O   0  0  0  0  0  0  0  0  0  0  0  0
   11.6913    5.2500    0.0000 C   0  0  0  0  0  0  0  0  0  0  0  0
   12.4413    6.5490    0.0000 F   0  0  0  0  0  0  0  0  0  0  0  0
   10.9413    3.9510    0.0000 F   0  0  0  0  0  0  0  0  0  0  0  0
   12.9904    4.5000    0.0000 C   0  0  0  0  0  0  0  0  0  0  0  0
   12.2404    3.2010    0.0000 F   0  0  0  0  0  0  0  0  0  0  0  0
   13.7404    5.7990    0.0000 F   0  0  0  0  0  0  0  0  0  0  0  0
   14.2894    3.7500    0.0000 C   0  0  0  0  0  0  0  0  0  0  0  0
   15.0394    5.0490    0.0000 F   0  0  0  0  0  0  0  0  0  0  0  0
   13.5394    2.4510    0.0000 F   0  0  0  0  0  0  0  0  0  0  0  0
   15.5885    3.0000    0.0000 C   0  0  0  0  0  0  0  0  0  0  0  0
   14.8385    1.7010    0.0000 F   0  0  0  0  0  0  0  0  0  0  0  0
   16.3385    4.2990    0.0000 F   0  0  0  0  0  0  0  0  0  0  0  0
   16.8875    2.2500    0.0000 C   0  0  0  0  0  0  0  0  0  0  0  0
   18.1865    1.5000    0.0000 F   0  0  0  0  0  0  0  0  0  0  0  0
   17.6375    3.5490    0.0000 F   0  0  0  0  0  0  0  0  0  0  0  0
   16.1375    0.9510    0.0000 F   0  0  0  0  0  0  0  0  0  0  0  0
  1  2  1  0
  2  3  1  0
  2  4  1  0
  4  5  1  0
  5  6  2  0
  5  7  1  0
  7  8  1  0
  8  9  1  0
  8 10  1  0
  8 11  1  0
 11 12  1  0
 12 13  1  0
 13 14  1  0
 14 15  1  0
 15 16  2  0
 15 17  1  0
 17 18  1  0
 17 19  1  0
 17 20  1  0
 20 21  1  0
 20 22  1  0
 20 23  1  0
 23 24  1  0
 23 25  1  0
 23 26  1  0
 26 27  1  0
 26 28  1  0
 26 29  1  0
 29 30  1  0
 29 31  1  0
 29 32  1  0
M  CHG  1   8   1
M  END
$$$$

     RDKit          2D

 45 44  0  0  0  0  0  0  0  0999 V2000
   -1.5000   -1.5000    0.0000 O   0  0  0  0  0  0  0  0  0  0  0  0
    0.0000   -1.5000    0.0000 S   0  0  0  0  0  0  0  0  0  0  0  0
    0.7912   -1.5972    0.0000 O   0  0  0  0  0  0  0  0  0  0  0  0
   -0.0000   -3.0000    0.0000 O   0  0  0  0  0  0  0  0  0  0  0  0
    0.0000    0.0000    0.0000 C   0  0  0  0  0  0  0  0  0  0  0  0
   -1.5000    0.0000    0.0000 F   0  0  0  0  0  0  0  0  0  0  0  0
    0.0000    1.5000    0.0000 F   0  0  0  0  0  0  0  0  0  0  0  0
    1.5000    0.0000    0.0000 C   0  0  0  0  0  0  0  0  0  0  0  0
    1.5000    1.5000    0.0000 F   0  0  0  0  0  0  0  0  0  0  0  0
    1.6080   -0.8791    0.0000 F   0  0  0  0  0  0  0  0  0  0  0  0
    3.0000    0.0000    0.0000 C   0  0  0  0  0  0  0  0  0  0  0  0
    3.0000   -1.5000    0.0000 F   0  0  0  0  0  0  0  0  0  0  0  0
    3.0000    1.5000    0.0000 F   0  0  0  0  0  0  0  0  0  0  0  0
    4.5000    0.0000    0.0000 C   0  0  0  0  0  0  0  0  0  0  0  0
    4.5000    1.5000    0.0000 F   0  0  0  0  0  0  0  0  0  0  0  0
    4.5000   -1.5000    0.0000 F   0  0  0  0  0  0  0  0  0  0  0  0
    6.0000    0.0000    0.0000 C   0  0  0  0  0  0  0  0  0  0  0  0
    6.0000   -1.5000    0.0000 F   0  0  0  0  0  0  0  0  0  0  0  0
    6.0000    1.5000    0.0000 F   0  0  0  0  0  0  0  0  0  0  0  0
    7.5000    0.0000    0.0000 C   0  0  0  0  0  0  0  0  0  0  0  0
    7.5000    1.5000    0.0000 F   0  0  0  0  0  0  0  0  0  0  0  0
    7.5000   -1.5000    0.0000 F   0  0  0  0  0  0  0  0  0  0  0  0
    9.0000    0.0000    0.0000 C   0  0  0  0  0  0  0  0  0  0  0  0
    9.0000    1.5000    0.0000 F   0  0  0  0  0  0  0  0  0  0  0  0
    9.0000   -1.5000    0.0000 F   0  0  0  0  0  0  0  0  0  0  0  0
   10.5000    0.0000    0.0000 C   0  0  0  0  0  0  0  0  0  0  0  0
   10.5000   -1.5000    0.0000 F   0  0  0  0  0  0  0  0  0  0  0  0
   10.5000    1.5000    0.0000 F   0  0  0  0  0  0  0  0  0  0  0  0
   12.0000    0.0000    0.0000 C   0  0  0  0  0  0  0  0  0  0  0  0
   12.0000    1.5000    0.0000 F   0  0  0  0  0  0  0  0  0  0  0  0
   12.0000   -1.5000    0.0000 F   0  0  0  0  0  0  0  0  0  0  0  0
   13.5000    0.0000    0.0000 C   0  0  0  0  0  0  0  0  0  0  0  0
   13.5000   -1.5000    0.0000 F   0  0  0  0  0  0  0  0  0  0  0  0
   13.5000    1.5000    0.0000 F   0  0  0  0  0  0  0  0  0  0  0  0
   15.0000    0.0000    0.0000 C   0  0  0  0  0  0  0  0  0  0  0  0
   15.0000    1.5000    0.0000 F   0  0  0  0  0  0  0  0  0  0  0  0
   15.0000   -1.5000    0.0000 F   0  0  0  0  0  0  0  0  0  0  0  0
   16.5000    0.0000    0.0000 C   0  0  0  0  0  0  0  0  0  0  0  0
   16.5000   -1.5000    0.0000 F   0  0  0  0  0  0  0  0  0  0  0  0
   16.5000    1.5000    0.0000 F   0  0  0  0  0  0  0  0  0  0  0  0
   18.0000    0.0000    0.0000 O   0  0  0  0  0  0  0  0  0  0  0  0
   18.7500    1.2990    0.0000 C   0  0  0  0  0  0  0  0  0  0  0  0
   19.5000    2.5981    0.0000 F   0  0  0  0  0  0  0  0  0  0  0  0
   20.0490    0.5490    0.0000 F   0  0  0  0  0  0  0  0  0  0  0  0
   17.4510    2.0490    0.0000 F   0  0  0  0  0  0  0  0  0  0  0  0
  1  2  2  0
  2  3  2  0
  2  4  1  0
  2  5  1  0
  5  6  1  0
  5  7  1  0
  5  8  1  0
  8  9  1  0
  8 10  1  0
  8 11  1  0
 11 12  1  0
 11 13  1  0
 11 14  1  0
 14 15  1  0
 14 16  1  0
 14 17  1  0
 17 18  1  0
 17 19  1  0
 17 20  1  0
 20 21  1  0
 20 22  1  0
 20 23  1  0
 23 24  1  0
 23 25  1  0
 23 26  1  0
 26 27  1  0
 26 28  1  0
 26 29  1  0
 29 30  1  0
 29 31  1  0
 29 32  1  0
 32 33  1  0
 32 34  1  0
 32 35  1  0
 35 36  1  0
 35 37  1  0
 35 38  1  0
 38 39  1  0
 38 40  1  0
 38 41  1  0
 41 42  1  0
 42 43  1  0
 42 44  1  0
 42 45  1  0
M  END
$$$$

     RDKit          2D

 55 54  0  0  0  0  0  0  0  0999 V2000
    6.4952   11.2500    0.0000 C   0  0  0  0  0  0  0  0  0  0  0  0
    6.4952    9.7500    0.0000 N   0  0  0  0  0  0  0  0  0  0  0  0
    7.7942    9.0000    0.0000 C   0  0  0  0  0  0  0  0  0  0  0  0
    5.1962    9.0000    0.0000 C   0  0  0  0  0  0  0  0  0  0  0  0
    5.1962    7.5000    0.0000 C   0  0  0  0  0  0  0  0  0  0  0  0
    3.8971    6.7500    0.0000 C   0  0  0  0  0  0  0  0  0  0  0  0
    3.8971    5.2500    0.0000 N   0  0  0  0  0  0  0  0  0  0  0  0
    2.5981    4.5000    0.0000 C   0  0  0  0  0  0  0  0  0  0  0  0
    2.5981    3.0000    0.0000 C   0  0  0  0  0  0  0  0  0  0  0  0
    1.2990    2.2500    0.0000 C   0  0  0  0  0  0  0  0  0  0  0  0
    0.0000    3.0000    0.0000 O   0  0  0  0  0  0  0  0  0  0  0  0
    1.2990    0.7500    0.0000 O   0  0  0  0  0  0  0  0  0  0  0  0
    5.1962    4.5000    0.0000 S   0  0  0  0  0  0  0  0  0  0  0  0
    5.9462    5.7990    0.0000 O   0  0  0  0  0  0  0  0  0  0  0  0
    4.7164    3.8634    0.0000 O   0  0  0  0  0  0  0  0  0  0  0  0
    6.4952    3.7500    0.0000 C   0  0  0  0  0  0  0  0  0  0  0  0
    7.2452    5.0490    0.0000 F   0  0  0  0  0  0  0  0  0  0  0  0
    7.7942    3.0000    0.0000 F   0  0  0  0  0  0  0  0  0  0  0  0
    5.7452    2.4510    0.0000 C   0  0  0  0  0  0  0  0  0  0  0  0
    4.9299    2.7970    0.0000 F   0  0  0  0  0  0  0  0  0  0  0  0
    7.0442    1.7010    0.0000 F   0  0  0  0  0  0  0  0  0  0  0  0
    4.9952    1.1519    0.0000 C   0  0  0  0  0  0  0  0  0  0  0  0
    3.6962    1.9019    0.0000 F   0  0  0  0  0  0  0  0  0  0  0  0
    6.2942    0.4019    0.0000 F   0  0  0  0  0  0  0  0  0  0  0  0
    4.2452   -0.1471    0.0000 C   0  0  0  0  0  0  0  0  0  0  0  0
    2.9462    0.6029    0.0000 F   0  0  0  0  0  0  0  0  0  0  0  0
    5.5442   -0.8971    0.0000 F   0  0  0  0  0  0  0  0  0  0  0  0
    3.4952   -1.4462    0.0000 C   0  0  0  0  0  0  0  0  0  0  0  0
    2.1962   -0.6962    0.0000 F   0  0  0  0  0  0  0  0  0  0  0  0
    4.7942   -2.1962    0.0000 F   0  0  0  0  0  0  0  0  0  0  0  0
    2.7452   -2.7452    0.0000 C   0  0  0  0  0  0  0  0  0  0  0  0
    1.4462   -1.9952    0.0000 F   0  0  0  0  0  0  0  0  0  0  0  0
    4.0442   -3.4952    0.0000 F   0  0  0  0  0  0  0  0  0  0  0  0
    1.9952   -4.0442    0.0000 C   0  0  0  0  0  0  0  0  0  0  0  0
    3.2942   -4.7942    0.0000 F   0  0  0  0  0  0  0  0  0  0  0  0
    0.6962   -3.2942    0.0000 F   0  0  0  0  0  0  0  0  0  0  0  0
    1.2452   -5.3433    0.0000 C   0  0  0  0  0  0  0  0  0  0  0  0
    2.5442   -6.0933    0.0000 F   0  0  0  0  0  0  0  0  0  0  0  0
   -0.0538   -4.5933    0.0000 F   0  0  0  0  0  0  0  0  0  0  0  0
    0.4952   -6.6423    0.0000 C   0  0  0  0  0  0  0  0  0  0  0  0
   -0.8038   -5.8923    0.0000 F   0  0  0  0  0  0  0  0  0  0  0  0
    1.7942   -7.3923    0.0000 F   0  0  0  0  0  0  0  0  0  0  0  0
   -0.2548   -7.9413    0.0000 C   0  0  0  0  0  0  0  0  0  0  0  0
    1.0442   -8.6913    0.0000 F   0  0  0  0  0  0  0  0  0  0  0  0
   -1.5538   -7.1913    0.0000 F   0  0  0  0  0  0  0  0  0  0  0  0
   -1.0048   -9.2404    0.0000 C   0  0  0  0  0  0  0  0  0  0  0  0
   -2.3038   -8.4904    0.0000 F   0  0  0  0  0  0  0  0  0  0  0  0
    0.2942   -9.9904    0.0000 F   0  0  0  0  0  0  0  0  0  0  0  0
   -1.7548  -10.5394    0.0000 C   0  0  0  0  0  0  0  0  0  0  0  0
   -0.4558  -11.2894    0.0000 F   0  0  0  0  0  0  0  0  0  0  0  0
   -3.0538   -9.7894    0.0000 F   0  0  0  0  0  0  0  0  0  0  0  0
   -2.5048  -11.8385    0.0000 C   0  0  0  0  0  0  0  0  0  0  0  0
   -3.2548  -13.1375    0.0000 F   0  0  0  0  0  0  0  0  0  0  0  0
   -3.8038  -11.0885    0.0000 F   0  0  0  0  0  0  0  0  0  0  0  0
   -1.2058  -12.5885    0.0000 F   0  0  0  0  0  0  0  0  0  0  0  0
  1  2  1  0
  2  3  1  0
  2  4  1  0
  4  5  1  0
  5  6  1  0
  6  7  1  0
  7  8  1  0
  8  9  1  0
  9 10  1  0
 10 11  2  0
 10 12  1  0
  7 13  1  0
 13 14  2  0
 13 15  2  0
 13 16  1  0
 16 17  1  0
 16 18  1  0
 16 19  1  0
 19 20  1  0
 19 21  1  0
 19 22  1  0
 22 23  1  0
 22 24  1  0
 22 25  1  0
 25 26  1  0
 25 27  1  0
 25 28  1  0
 28 29  1  0
 28 30  1  0
 28 31  1  0
 31 32  1  0
 31 33  1  0
 31 34  1  0
 34 35  1  0
 34 36  1  0
 34 37  1  0
 37 38  1  0
 37 39  1  0
 37 40  1  0
 40 41  1  0
 40 42  1  0
 40 43  1  0
 43 44  1  0
 43 45  1  0
 43 46  1  0
 46 47  1  0
 46 48  1  0
 46 49  1  0
 49 50  1  0
 49 51  1  0
 49 52  1  0
 52 53  1  0
 52 54  1  0
 52 55  1  0
M  END
$$$$

     RDKit          2D

 48 47  0  0  0  0  0  0  0  0999 V2000
   -0.9510   -2.0490    0.0000 O   0  0  0  0  0  0  0  0  0  0  0  0
   -2.2500   -1.2990    0.0000 S   0  0  0  0  0  0  0  0  0  0  0  0
   -3.5490   -0.5490    0.0000 O   0  0  0  0  0  0  0  0  0  0  0  0
   -3.0000   -2.5981    0.0000 O   0  0  0  0  0  0  0  0  0  0  0  0
   -1.5000    0.0000    0.0000 O   0  0  0  0  0  0  0  0  0  0  0  0
    0.0000    0.0000    0.0000 C   0  0  0  0  0  0  0  0  0  0  0  0
    0.0000    1.5000    0.0000 F   0  0  0  0  0  0  0  0  0  0  0  0
   -0.0000   -1.5000    0.0000 F   0  0  0  0  0  0  0  0  0  0  0  0
    1.5000    0.0000    0.0000 C   0  0  0  0  0  0  0  0  0  0  0  0
    1.5000    1.5000    0.0000 F   0  0  0  0  0  0  0  0  0  0  0  0
    1.5000   -1.5000    0.0000 F   0  0  0  0  0  0  0  0  0  0  0  0
    3.0000    0.0000    0.0000 C   0  0  0  0  0  0  0  0  0  0  0  0
    3.0000   -1.5000    0.0000 F   0  0  0  0  0  0  0  0  0  0  0  0
    3.0000    1.5000    0.0000 F   0  0  0  0  0  0  0  0  0  0  0  0
    4.5000    0.0000    0.0000 C   0  0  0  0  0  0  0  0  0  0  0  0
    4.5000    1.5000    0.0000 F   0  0  0  0  0  0  0  0  0  0  0  0
    4.5000   -1.5000    0.0000 F   0  0  0  0  0  0  0  0  0  0  0  0
    6.0000    0.0000    0.0000 C   0  0  0  0  0  0  0  0  0  0  0  0
    6.0000   -1.5000    0.0000 F   0  0  0  0  0  0  0  0  0  0  0  0
    6.0000    1.5000    0.0000 F   0  0  0  0  0  0  0  0  0  0  0  0
    7.5000    0.0000    0.0000 C   0  0  0  0  0  0  0  0  0  0  0  0
    7.5000    1.5000    0.0000 F   0  0  0  0  0  0  0  0  0  0  0  0
    7.5000   -1.5000    0.0000 F   0  0  0  0  0  0  0  0  0  0  0  0
    9.0000    0.0000    0.0000 C   0  0  0  0  0  0  0  0  0  0  0  0
    9.0000   -1.5000    0.0000 F   0  0  0  0  0  0  0  0  0  0  0  0
    9.0000    1.5000    0.0000 F   0  0  0  0  0  0  0  0  0  0  0  0
   10.5000    0.0000    0.0000 C   0  0  0  0  0  0  0  0  0  0  0  0
   10.5000   -1.5000    0.0000 F   0  0  0  0  0  0  0  0  0  0  0  0
   10.5000    1.5000    0.0000 F   0  0  0  0  0  0  0  0  0  0  0  0
   12.0000    0.0000    0.0000 C   0  0  0  0  0  0  0  0  0  0  0  0
   12.0000    1.5000    0.0000 F   0  0  0  0  0  0  0  0  0  0  0  0
   12.0000   -1.5000    0.0000 F   0  0  0  0  0  0  0  0  0  0  0  0
   13.5000    0.0000    0.0000 C   0  0  0  0  0  0  0  0  0  0  0  0
   13.5000   -1.5000    0.0000 F   0  0  0  0  0  0  0  0  0  0  0  0
   13.5000    1.5000    0.0000 F   0  0  0  0  0  0  0  0  0  0  0  0
   15.0000    0.0000    0.0000 C   0  0  0  0  0  0  0  0  0  0  0  0
   15.0000    1.5000    0.0000 F   0  0  0  0  0  0  0  0  0  0  0  0
   15.0000   -1.5000    0.0000 F   0  0  0  0  0  0  0  0  0  0  0  0
   16.5000    0.0000    0.0000 C   0  0  0  0  0  0  0  0  0  0  0  0
   16.5000   -1.5000    0.0000 F   0  0  0  0  0  0  0  0  0  0  0  0
   16.5000    1.5000    0.0000 F   0  0  0  0  0  0  0  0  0  0  0  0
   18.0000    0.0000    0.0000 C   0  0  0  0  0  0  0  0  0  0  0  0
   18.0000    1.5000    0.0000 F   0  0  0  0  0  0  0  0  0  0  0  0
   18.0000   -1.5000    0.0000 F   0  0  0  0  0  0  0  0  0  0  0  0
   19.5000    0.0000    0.0000 C   0  0  0  0  0  0  0  0  0  0  0  0
   21.0000    0.0000    0.0000 F   0  0  0  0  0  0  0  0  0  0  0  0
   19.5000   -1.5000    0.0000 F   0  0  0  0  0  0  0  0  0  0  0  0
   19.5000    1.5000    0.0000 F   0  0  0  0  0  0  0  0  0  0  0  0
  1  2  2  0
  2  3  2  0
  2  4  1  0
  2  5  1  0
  5  6  1  0
  6  7  1  0
  6  8  1  0
  6  9  1  0
  9 10  1  0
  9 11  1  0
  9 12  1  0
 12 13  1  0
 12 14  1  0
 12 15  1  0
 15 16  1  0
 15 17  1  0
 15 18  1  0
 18 19  1  0
 18 20  1  0
 18 21  1  0
 21 22  1  0
 21 23  1  0
 21 24  1  0
 24 25  1  0
 24 26  1  0
 24 27  1  0
 27 28  1  0
 27 29  1  0
 27 30  1  0
 30 31  1  0
 30 32  1  0
 30 33  1  0
 33 34  1  0
 33 35  1  0
 33 36  1  0
 36 37  1  0
 36 38  1  0
 36 39  1  0
 39 40  1  0
 39 41  1  0
 39 42  1  0
 42 43  1  0
 42 44  1  0
 42 45  1  0
 45 46  1  0
 45 47  1  0
 45 48  1  0
M  END
$$$$

     RDKit          2D

 15 14  0  0  0  0  0  0  0  0999 V2000
   -0.9510   -2.0490    0.0000 O   0  0  0  0  0  0  0  0  0  0  0  0
   -2.2500   -1.2990    0.0000 S   0  0  0  0  0  0  0  0  0  0  0  0
   -3.5490   -0.5490    0.0000 O   0  0  0  0  0  0  0  0  0  0  0  0
   -3.0000   -2.5981    0.0000 O   0  0  0  0  0  0  0  0  0  0  0  0
   -1.5000    0.0000    0.0000 O   0  0  0  0  0  0  0  0  0  0  0  0
    0.0000    0.0000    0.0000 C   0  0  0  0  0  0  0  0  0  0  0  0
    0.0000    1.5000    0.0000 F   0  0  0  0  0  0  0  0  0  0  0  0
   -0.0000   -1.5000    0.0000 F   0  0  0  0  0  0  0  0  0  0  0  0
    1.5000    0.0000    0.0000 C   0  0  0  0  0  0  0  0  0  0  0  0
    1.5000   -1.5000    0.0000 F   0  0  0  0  0  0  0  0  0  0  0  0
    1.5000    1.5000    0.0000 F   0  0  0  0  0  0  0  0  0  0  0  0
    3.0000    0.0000    0.0000 C   0  0  0  0  0  0  0  0  0  0  0  0
    4.5000    0.0000    0.0000 F   0  0  0  0  0  0  0  0  0  0  0  0
    3.0000    1.5000    0.0000 F   0  0  0  0  0  0  0  0  0  0  0  0
    3.0000   -1.5000    0.0000 F   0  0  0  0  0  0  0  0  0  0  0  0
  1  2  2  0
  2  3  2  0
  2  4  1  0
  2  5  1  0
  5  6  1  0
  6  7  1  0
  6  8  1  0
  6  9  1  0
  9 10  1  0
  9 11  1  0
  9 12  1  0
 12 13  1  0
 12 14  1  0
 12 15  1  0
M  END
$$$$

     RDKit          2D

 30 30  0  0  0  0  0  0  0  0999 V2000
    3.3944    0.1110    0.0000 O   0  0  0  0  0  0  0  0  0  0  0  0
    2.3907   -1.0037    0.0000 S   0  0  0  0  0  0  0  0  0  0  0  0
    1.9335   -1.6567    0.0000 O   0  0  0  0  0  0  0  0  0  0  0  0
    3.5054   -2.0074    0.0000 O   0  0  0  0  0  0  0  0  0  0  0  0
    1.2760    0.0000    0.0000 C   0  0  0  0  0  0  0  0  0  0  0  0
    2.3907    1.0037    0.0000 F   0  0  0  0  0  0  0  0  0  0  0  0
    0.3943    1.2135    0.0000 C   0  0  0  0  0  0  0  0  0  0  0  0
   -0.2158    2.5838    0.0000 F   0  0  0  0  0  0  0  0  0  0  0  0
    1.6933    1.9635    0.0000 F   0  0  0  0  0  0  0  0  0  0  0  0
   -1.0323    0.7500    0.0000 C   0  0  0  0  0  0  0  0  0  0  0  0
   -2.5241    0.5932    0.0000 F   0  0  0  0  0  0  0  0  0  0  0  0
   -1.3442    2.2172    0.0000 F   0  0  0  0  0  0  0  0  0  0  0  0
   -1.0323   -0.7500    0.0000 C   0  0  0  0  0  0  0  0  0  0  0  0
   -2.5241   -0.5932    0.0000 F   0  0  0  0  0  0  0  0  0  0  0  0
   -1.3442   -2.2172    0.0000 C   0  0  0  0  0  0  0  0  0  0  0  0
   -2.8114   -1.9054    0.0000 F   0  0  0  0  0  0  0  0  0  0  0  0
    0.0741   -2.7056    0.0000 F   0  0  0  0  0  0  0  0  0  0  0  0
   -1.6560   -3.6844    0.0000 C   0  0  0  0  0  0  0  0  0  0  0  0
   -3.1232   -3.3726    0.0000 F   0  0  0  0  0  0  0  0  0  0  0  0
   -0.1888   -3.9963    0.0000 F   0  0  0  0  0  0  0  0  0  0  0  0
   -1.9679   -5.1517    0.0000 C   0  0  0  0  0  0  0  0  0  0  0  0
   -0.5007   -5.4635    0.0000 F   0  0  0  0  0  0  0  0  0  0  0  0
   -3.4351   -4.8398    0.0000 F   0  0  0  0  0  0  0  0  0  0  0  0
   -2.2798   -6.6189    0.0000 C   0  0  0  0  0  0  0  0  0  0  0  0
   -2.5916   -8.0861    0.0000 F   0  0  0  0  0  0  0  0  0  0  0  0
   -3.7470   -6.3070    0.0000 F   0  0  0  0  0  0  0  0  0  0  0  0
   -0.8125   -6.9308    0.0000 F   0  0  0  0  0  0  0  0  0  0  0  0
    0.3943   -1.2135    0.0000 C   0  0  0  0  0  0  0  0  0  0  0  0
    1.1017   -1.7466    0.0000 F   0  0  0  0  0  0  0  0  0  0  0  0
   -0.0442   -2.6480    0.0000 F   0  0  0  0  0  0  0  0  0  0  0  0
  1  2  2  0
  2  3  2  0
  2  4  1  0
  2  5  1  0
  5  6  1  0
  5  7  1  0
  7  8  1  0
  7  9  1  0
  7 10  1  0
 10 11  1  0
 10 12  1  0
 10 13  1  0
 13 14  1  0
 13 15  1  0
 15 16  1  0
 15 17  1  0
 15 18  1  0
 18 19  1  0
 18 20  1  0
 18 21  1  0
 21 22  1  0
 21 23  1  0
 21 24  1  0
 24 25  1  0
 24 26  1  0
 24 27  1  0
 13 28  1  0
 28 29  1  0
 28 30  1  0
 28  5  1  0
M  END
$$$$

     RDKit          2D

 46 45  0  0  0  0  0  0  0  0999 V2000
    7.0981    4.0981    0.0000 C   0  0  0  0  0  0  0  0  0  0  0  0
    5.7990    3.3481    0.0000 N   0  0  0  0  0  0  0  0  0  0  0  0
    4.5000    2.5981    0.0000 C   0  0  0  0  0  0  0  0  0  0  0  0
    6.5490    2.0490    0.0000 C   0  0  0  0  0  0  0  0  0  0  0  0
    5.7990    0.7500    0.0000 C   0  0  0  0  0  0  0  0  0  0  0  0
    6.5490   -0.5490    0.0000 C   0  0  0  0  0  0  0  0  0  0  0  0
    5.7990   -1.8481    0.0000 N   0  0  0  0  0  0  0  0  0  0  0  0
    6.5490   -3.1471    0.0000 S   0  0  0  0  0  0  0  0  0  0  0  0
    7.8481   -2.3971    0.0000 O   0  0  0  0  0  0  0  0  0  0  0  0
    5.8152   -3.4586    0.0000 O   0  0  0  0  0  0  0  0  0  0  0  0
    7.2990   -4.4462    0.0000 C   0  0  0  0  0  0  0  0  0  0  0  0
    8.5981   -3.6962    0.0000 F   0  0  0  0  0  0  0  0  0  0  0  0
    8.0490   -5.7452    0.0000 F   0  0  0  0  0  0  0  0  0  0  0  0
    6.0000   -5.1962    0.0000 C   0  0  0  0  0  0  0  0  0  0  0  0
    5.4669   -4.4888    0.0000 F   0  0  0  0  0  0  0  0  0  0  0  0
    6.7500   -6.4952    0.0000 F   0  0  0  0  0  0  0  0  0  0  0  0
    4.7010   -5.9462    0.0000 C   0  0  0  0  0  0  0  0  0  0  0  0
    5.4510   -7.2452    0.0000 F   0  0  0  0  0  0  0  0  0  0  0  0
    3.9510   -4.6471    0.0000 F   0  0  0  0  0  0  0  0  0  0  0  0
    3.4019   -6.6962    0.0000 C   0  0  0  0  0  0  0  0  0  0  0  0
    2.6519   -5.3971    0.0000 F   0  0  0  0  0  0  0  0  0  0  0  0
    4.1519   -7.9952    0.0000 F   0  0  0  0  0  0  0  0  0  0  0  0
    2.1029   -7.4462    0.0000 C   0  0  0  0  0  0  0  0  0  0  0  0
    2.8529   -8.7452    0.0000 F   0  0  0  0  0  0  0  0  0  0  0  0
    1.3529   -6.1471    0.0000 F   0  0  0  0  0  0  0  0  0  0  0  0
    0.8038   -8.1962    0.0000 C   0  0  0  0  0  0  0  0  0  0  0  0
    1.5538   -9.4952    0.0000 F   0  0  0  0  0  0  0  0  0  0  0  0
    0.0538   -6.8971    0.0000 F   0  0  0  0  0  0  0  0  0  0  0  0
   -0.4952   -8.9462    0.0000 C   0  0  0  0  0  0  0  0  0  0  0  0
   -1.2452   -7.6471    0.0000 F   0  0  0  0  0  0  0  0  0  0  0  0
    0.2548  -10.2452    0.0000 F   0  0  0  0  0  0  0  0  0  0  0  0
   -1.7942   -9.6962    0.0000 C   0  0  0  0  0  0  0  0  0  0  0  0
   -1.0442  -10.9952    0.0000 F   0  0  0  0  0  0  0  0  0  0  0  0
   -2.5442   -8.3971    0.0000 F   0  0  0  0  0  0  0  0  0  0  0  0
   -3.0933  -10.4462    0.0000 C   0  0  0  0  0  0  0  0  0  0  0  0
   -3.8433   -9.1471    0.0000 F   0  0  0  0  0  0  0  0  0  0  0  0
   -2.3433  -11.7452    0.0000 F   0  0  0  0  0  0  0  0  0  0  0  0
   -4.3923  -11.1962    0.0000 C   0  0  0  0  0  0  0  0  0  0  0  0
   -5.6913  -11.9462    0.0000 F   0  0  0  0  0  0  0  0  0  0  0  0
   -3.6423  -12.4952    0.0000 F   0  0  0  0  0  0  0  0  0  0  0  0
   -5.1423   -9.8971    0.0000 F   0  0  0  0  0  0  0  0  0  0  0  0
    5.0490    4.6471    0.0000 C   0  0  0  0  0  0  0  0  0  0  0  0
    3.5490    4.6471    0.0000 C   0  0  0  0  0  0  0  0  0  0  0  0
    2.7990    5.9462    0.0000 C   0  0  0  0  0  0  0  0  0  0  0  0
    3.5490    7.2452    0.0000 O   0  0  0  0  0  0  0  0  0  0  0  0
    1.2990    5.9462    0.0000 O   0  0  0  0  0  0  0  0  0  0  0  0
  1  2  1  0
  2  3  1  0
  2  4  1  0
  4  5  1  0
  5  6  1  0
  6  7  1  0
  7  8  1  0
  8  9  2  0
  8 10  2  0
  8 11  1  0
 11 12  1  0
 11 13  1  0
 11 14  1  0
 14 15  1  0
 14 16  1  0
 14 17  1  0
 17 18  1  0
 17 19  1  0
 17 20  1  0
 20 21  1  0
 20 22  1  0
 20 23  1  0
 23 24  1  0
 23 25  1  0
 23 26  1  0
 26 27  1  0
 26 28  1  0
 26 29  1  0
 29 30  1  0
 29 31  1  0
 29 32  1  0
 32 33  1  0
 32 34  1  0
 32 35  1  0
 35 36  1  0
 35 37  1  0
 35 38  1  0
 38 39  1  0
 38 40  1  0
 38 41  1  0
  2 42  1  0
 42 43  1  0
 43 44  1  0
 44 45  2  0
 44 46  1  0
M  CHG  2   2   1  46  -1
M  END
$$$$

     RDKit          2D

 30 29  0  0  0  0  0  0  0  0999 V2000
    0.0000    0.0000    0.0000 C   0  0  0  0  0  0  0  0  0  0  0  0
    1.2990    0.7500    0.0000 C   0  0  0  0  0  0  0  0  0  0  0  0
    2.5981   -0.0000    0.0000 N   0  0  0  0  0  0  0  0  0  0  0  0
    3.8971    0.7500    0.0000 C   0  0  0  0  0  0  0  0  0  0  0  0
    5.1962   -0.0000    0.0000 C   0  0  0  0  0  0  0  0  0  0  0  0
    6.4952    0.7500    0.0000 C   0  0  0  0  0  0  0  0  0  0  0  0
    7.7942   -0.0000    0.0000 N   0  0  0  0  0  0  0  0  0  0  0  0
    7.0442   -1.2990    0.0000 C   0  0  0  0  0  0  0  0  0  0  0  0
    8.5442    1.2990    0.0000 C   0  0  0  0  0  0  0  0  0  0  0  0
    9.0933   -0.7500    0.0000 C   0  0  0  0  0  0  0  0  0  0  0  0
    9.0933   -2.2500    0.0000 C   0  0  0  0  0  0  0  0  0  0  0  0
   10.3923   -3.0000    0.0000 C   0  0  0  0  0  0  0  0  0  0  0  0
   11.6913   -2.2500    0.0000 O   0  0  0  0  0  0  0  0  0  0  0  0
   10.3923   -4.5000    0.0000 O   0  0  0  0  0  0  0  0  0  0  0  0
    2.5981   -1.5000    0.0000 S   0  0  0  0  0  0  0  0  0  0  0  0
    1.8069   -1.4028    0.0000 O   0  0  0  0  0  0  0  0  0  0  0  0
    4.0981   -1.5000    0.0000 O   0  0  0  0  0  0  0  0  0  0  0  0
    2.5981   -3.0000    0.0000 C   0  0  0  0  0  0  0  0  0  0  0  0
    4.0981   -3.0000    0.0000 F   0  0  0  0  0  0  0  0  0  0  0  0
    2.5981   -4.5000    0.0000 F   0  0  0  0  0  0  0  0  0  0  0  0
    1.0981   -3.0000    0.0000 C   0  0  0  0  0  0  0  0  0  0  0  0
    0.9901   -2.1209    0.0000 F   0  0  0  0  0  0  0  0  0  0  0  0
    1.0981   -4.5000    0.0000 F   0  0  0  0  0  0  0  0  0  0  0  0
   -0.4019   -3.0000    0.0000 C   0  0  0  0  0  0  0  0  0  0  0  0
   -0.4019   -4.5000    0.0000 F   0  0  0  0  0  0  0  0  0  0  0  0
   -0.4019   -1.5000    0.0000 F   0  0  0  0  0  0  0  0  0  0  0  0
   -1.9019   -3.0000    0.0000 C   0  0  0  0  0  0  0  0  0  0  0  0
   -3.4019   -3.0000    0.0000 F   0  0  0  0  0  0  0  0  0  0  0  0
   -1.9019   -1.5000    0.0000 F   0  0  0  0  0  0  0  0  0  0  0  0
   -1.9019   -4.5000    0.0000 F   0  0  0  0  0  0  0  0  0  0  0  0
  1  2  1  0
  2  3  1  0
  3  4  1  0
  4  5  1  0
  5  6  1  0
  6  7  1  0
  7  8  1  0
  7  9  1  0
  7 10  1  0
 10 11  1  0
 11 12  1  0
 12 13  2  0
 12 14  1  0
  3 15  1  0
 15 16  2  0
 15 17  2  0
 15 18  1  0
 18 19  1  0
 18 20  1  0
 18 21  1  0
 21 22  1  0
 21 23  1  0
 21 24  1  0
 24 25  1  0
 24 26  1  0
 24 27  1  0
 27 28  1  0
 27 29  1  0
 27 30  1  0
M  CHG  2   7   1  14  -1
M  END
$$$$

     RDKit          2D

 39 38  0  0  0  0  0  0  0  0999 V2000
    0.0000    0.0000    0.0000 C   0  0  0  0  0  0  0  0  0  0  0  0
    1.2990    0.7500    0.0000 C   0  0  0  0  0  0  0  0  0  0  0  0
    2.5981   -0.0000    0.0000 N   0  0  0  0  0  0  0  0  0  0  0  0
    3.8971    0.7500    0.0000 C   0  0  0  0  0  0  0  0  0  0  0  0
    5.1962   -0.0000    0.0000 C   0  0  0  0  0  0  0  0  0  0  0  0
    6.4952    0.7500    0.0000 C   0  0  0  0  0  0  0  0  0  0  0  0
    7.7942   -0.0000    0.0000 N   0  0  0  0  0  0  0  0  0  0  0  0
    7.0442   -1.2990    0.0000 C   0  0  0  0  0  0  0  0  0  0  0  0
    8.5442    1.2990    0.0000 C   0  0  0  0  0  0  0  0  0  0  0  0
    9.0933   -0.7500    0.0000 C   0  0  0  0  0  0  0  0  0  0  0  0
    9.0933   -2.2500    0.0000 C   0  0  0  0  0  0  0  0  0  0  0  0
   10.3923   -3.0000    0.0000 C   0  0  0  0  0  0  0  0  0  0  0  0
   11.6913   -2.2500    0.0000 O   0  0  0  0  0  0  0  0  0  0  0  0
   10.3923   -4.5000    0.0000 O   0  0  0  0  0  0  0  0  0  0  0  0
    2.5981   -1.5000    0.0000 S   0  0  0  0  0  0  0  0  0  0  0  0
    1.8069   -1.4028    0.0000 O   0  0  0  0  0  0  0  0  0  0  0  0
    4.0981   -1.5000    0.0000 O   0  0  0  0  0  0  0  0  0  0  0  0
    2.5981   -3.0000    0.0000 C   0  0  0  0  0  0  0  0  0  0  0  0
    4.0981   -3.0000    0.0000 F   0  0  0  0  0  0  0  0  0  0  0  0
    2.5981   -4.5000    0.0000 F   0  0  0  0  0  0  0  0  0  0  0  0
    1.0981   -3.0000    0.0000 C   0  0  0  0  0  0  0  0  0  0  0  0
    0.9901   -2.1209    0.0000 F   0  0  0  0  0  0  0  0  0  0  0  0
    1.0981   -4.5000    0.0000 F   0  0  0  0  0  0  0  0  0  0  0  0
   -0.4019   -3.0000    0.0000 C   0  0  0  0  0  0  0  0  0  0  0  0
   -0.4019   -1.5000    0.0000 F   0  0  0  0  0  0  0  0  0  0  0  0
   -0.4019   -4.5000    0.0000 F   0  0  0  0  0  0  0  0  0  0  0  0
   -1.9019   -3.0000    0.0000 C   0  0  0  0  0  0  0  0  0  0  0  0
   -1.9019   -4.5000    0.0000 F   0  0  0  0  0  0  0  0  0  0  0  0
   -1.9019   -1.5000    0.0000 F   0  0  0  0  0  0  0  0  0  0  0  0
   -3.4019   -3.0000    0.0000 C   0  0  0  0  0  0  0  0  0  0  0  0
   -3.4019   -4.5000    0.0000 F   0  0  0  0  0  0  0  0  0  0  0  0
   -3.4019   -1.5000    0.0000 F   0  0  0  0  0  0  0  0  0  0  0  0
   -4.9019   -3.0000    0.0000 C   0  0  0  0  0  0  0  0  0  0  0  0
   -4.9019   -1.5000    0.0000 F   0  0  0  0  0  0  0  0  0  0  0  0
   -4.9019   -4.5000    0.0000 F   0  0  0  0  0  0  0  0  0  0  0  0
   -6.4019   -3.0000    0.0000 C   0  0  0  0  0  0  0  0  0  0  0  0
   -7.9019   -3.0000    0.0000 F   0  0  0  0  0  0  0  0  0  0  0  0
   -6.4019   -4.5000    0.0000 F   0  0  0  0  0  0  0  0  0  0  0  0
   -6.4019   -1.5000    0.0000 F   0  0  0  0  0  0  0  0  0  0  0  0
  1  2  1  0
  2  3  1  0
  3  4  1  0
  4  5  1  0
  5  6  1  0
  6  7  1  0
  7  8  1  0
  7  9  1  0
  7 10  1  0
 10 11  1  0
 11 12  1  0
 12 13  2  0
 12 14  1  0
  3 15  1  0
 15 16  2  0
 15 17  2  0
 15 18  1  0
 18 19  1  0
 18 20  1  0
 18 21  1  0
 21 22  1  0
 21 23  1  0
 21 24  1  0
 24 25  1  0
 24 26  1  0
 24 27  1  0
 27 28  1  0
 27 29  1  0
 27 30  1  0
 30 31  1  0
 30 32  1  0
 30 33  1  0
 33 34  1  0
 33 35  1  0
 33 36  1  0
 36 37  1  0
 36 38  1  0
 36 39  1  0
M  CHG  2   7   1  14  -1
M  END
$$$$

     RDKit          2D

 23 23  0  0  0  0  0  0  0  0999 V2000
    2.5706    2.4621    0.0000 O   0  0  0  0  0  0  0  0  0  0  0  0
    2.6491    0.9642    0.0000 C   0  0  0  0  0  0  0  0  0  0  0  0
    4.0586    0.4512    0.0000 O   0  0  0  0  0  0  0  0  0  0  0  0
    1.5000    0.0000    0.0000 C   0  0  0  0  0  0  0  0  0  0  0  0
    2.6491   -0.9642    0.0000 F   0  0  0  0  0  0  0  0  0  0  0  0
    0.7500   -1.2990    0.0000 C   0  0  0  0  0  0  0  0  0  0  0  0
    2.1595   -1.8121    0.0000 F   0  0  0  0  0  0  0  0  0  0  0  0
    0.4895   -2.7762    0.0000 F   0  0  0  0  0  0  0  0  0  0  0  0
   -0.7500   -1.2990    0.0000 C   0  0  0  0  0  0  0  0  0  0  0  0
   -0.4895   -2.7762    0.0000 F   0  0  0  0  0  0  0  0  0  0  0  0
   -2.1595   -1.8121    0.0000 F   0  0  0  0  0  0  0  0  0  0  0  0
   -1.5000    0.0000    0.0000 C   0  0  0  0  0  0  0  0  0  0  0  0
   -2.6491   -0.9642    0.0000 F   0  0  0  0  0  0  0  0  0  0  0  0
   -2.1686    0.4341    0.0000 F   0  0  0  0  0  0  0  0  0  0  0  0
   -0.7500    1.2990    0.0000 C   0  0  0  0  0  0  0  0  0  0  0  0
   -0.4895    2.7762    0.0000 F   0  0  0  0  0  0  0  0  0  0  0  0
   -2.1595    1.8121    0.0000 C   0  0  0  0  0  0  0  0  0  0  0  0
   -3.5691    2.3251    0.0000 F   0  0  0  0  0  0  0  0  0  0  0  0
   -2.5215    1.1018    0.0000 F   0  0  0  0  0  0  0  0  0  0  0  0
   -1.6465    3.2216    0.0000 F   0  0  0  0  0  0  0  0  0  0  0  0
    0.7500    1.2990    0.0000 C   0  0  0  0  0  0  0  0  0  0  0  0
    0.4895    2.7762    0.0000 F   0  0  0  0  0  0  0  0  0  0  0  0
    2.0865    1.9801    0.0000 F   0  0  0  0  0  0  0  0  0  0  0  0
  1  2  2  0
  2  3  1  0
  2  4  1  0
  4  5  1  0
  4  6  1  0
  6  7  1  0
  6  8  1  0
  6  9  1  0
  9 10  1  0
  9 11  1  0
  9 12  1  0
 12 13  1  0
 12 14  1  0
 12 15  1  0
 15 16  1  0
 15 17  1  0
 17 18  1  0
 17 19  1  0
 17 20  1  0
 15 21  1  0
 21 22  1  0
 21 23  1  0
 21  4  1  0
M  END
$$$$

     RDKit          2D

 42 41  0  0  0  0  0  0  0  0999 V2000
    0.0000    0.0000    0.0000 C   0  0  0  0  0  0  0  0  0  0  0  0
    1.2990    0.7500    0.0000 N   0  0  0  0  0  0  0  0  0  0  0  0
    2.5981    1.5000    0.0000 C   0  0  0  0  0  0  0  0  0  0  0  0
    2.0490   -0.5490    0.0000 C   0  0  0  0  0  0  0  0  0  0  0  0
    3.5490   -0.5490    0.0000 C   0  0  0  0  0  0  0  0  0  0  0  0
    4.2990   -1.8481    0.0000 C   0  0  0  0  0  0  0  0  0  0  0  0
    5.7990   -1.8481    0.0000 N   0  0  0  0  0  0  0  0  0  0  0  0
    6.5490   -3.1471    0.0000 C   0  0  0  0  0  0  0  0  0  0  0  0
    8.0490   -3.1471    0.0000 C   0  0  0  0  0  0  0  0  0  0  0  0
    8.9518   -1.9492    0.0000 O   0  0  0  0  0  0  0  0  0  0  0  0
    8.7990   -4.4462    0.0000 C   0  0  0  0  0  0  0  0  0  0  0  0
   10.2990   -4.4462    0.0000 S   0  0  0  0  0  0  0  0  0  0  0  0
   10.2990   -5.9462    0.0000 O   0  0  0  0  0  0  0  0  0  0  0  0
   10.1162   -2.9573    0.0000 O   0  0  0  0  0  0  0  0  0  0  0  0
   11.7879   -4.6290    0.0000 O   0  0  0  0  0  0  0  0  0  0  0  0
    6.5490   -0.5490    0.0000 S   0  0  0  0  0  0  0  0  0  0  0  0
    5.2500    0.2010    0.0000 O   0  0  0  0  0  0  0  0  0  0  0  0
    7.1857   -1.0288    0.0000 O   0  0  0  0  0  0  0  0  0  0  0  0
    7.2990    0.7500    0.0000 C   0  0  0  0  0  0  0  0  0  0  0  0
    6.0000    1.5000    0.0000 F   0  0  0  0  0  0  0  0  0  0  0  0
    8.0490    2.0490    0.0000 F   0  0  0  0  0  0  0  0  0  0  0  0
    8.5981    0.0000    0.0000 C   0  0  0  0  0  0  0  0  0  0  0  0
    8.2520   -0.8153    0.0000 F   0  0  0  0  0  0  0  0  0  0  0  0
    9.3481    1.2990    0.0000 F   0  0  0  0  0  0  0  0  0  0  0  0
    9.8971   -0.7500    0.0000 C   0  0  0  0  0  0  0  0  0  0  0  0
    9.3111   -2.1308    0.0000 F   0  0  0  0  0  0  0  0  0  0  0  0
   10.6471    0.5490    0.0000 F   0  0  0  0  0  0  0  0  0  0  0  0
   11.1962   -1.5000    0.0000 C   0  0  0  0  0  0  0  0  0  0  0  0
   11.9462   -0.2010    0.0000 F   0  0  0  0  0  0  0  0  0  0  0  0
   10.2934   -2.6979    0.0000 F   0  0  0  0  0  0  0  0  0  0  0  0
   12.4952   -2.2500    0.0000 C   0  0  0  0  0  0  0  0  0  0  0  0
   13.7942   -3.0000    0.0000 F   0  0  0  0  0  0  0  0  0  0  0  0
   11.9091   -3.6308    0.0000 F   0  0  0  0  0  0  0  0  0  0  0  0
   13.2452   -0.9510    0.0000 F   0  0  0  0  0  0  0  0  0  0  0  0
    0.5490    2.0490    0.0000 C   0  0  0  0  0  0  0  0  0  0  0  0
    1.2990    3.3481    0.0000 C   0  0  0  0  0  0  0  0  0  0  0  0
    2.7990    3.3481    0.0000 O   0  0  0  0  0  0  0  0  0  0  0  0
    0.5490    4.6471    0.0000 C   0  0  0  0  0  0  0  0  0  0  0  0
    1.2990    5.9462    0.0000 S   0  0  0  0  0  0  0  0  0  0  0  0
    0.0000    6.6962    0.0000 O   0  0  0  0  0  0  0  0  0  0  0  0
    2.5981    5.1962    0.0000 O   0  0  0  0  0  0  0  0  0  0  0  0
    2.0490    7.2452    0.0000 O   0  0  0  0  0  0  0  0  0  0  0  0
  1  2  1  0
  2  3  1  0
  2  4  1  0
  4  5  1  0
  5  6  1  0
  6  7  1  0
  7  8  1  0
  8  9  1  0
  9 10  1  0
  9 11  1  0
 11 12  1  0
 12 13  2  0
 12 14  2  0
 12 15  1  0
  7 16  1  0
 16 17  2  0
 16 18  2  0
 16 19  1  0
 19 20  1  0
 19 21  1  0
 19 22  1  0
 22 23  1  0
 22 24  1  0
 22 25  1  0
 25 26  1  0
 25 27  1  0
 25 28  1  0
 28 29  1  0
 28 30  1  0
 28 31  1  0
 31 32  1  0
 31 33  1  0
 31 34  1  0
  2 35  1  0
 35 36  1  0
 36 37  1  0
 36 38  1  0
 38 39  1  0
 39 40  2  0
 39 41  2  0
 39 42  1  0
M  CHG  1   2   1
M  END
$$$$

     RDKit          2D

 44 43  0  0  0  0  0  0  0  0999 V2000
   -2.5981    4.5000    0.0000 C   0  0  0  0  0  0  0  0  0  0  0  0
   -1.2990    5.2500    0.0000 N   0  0  0  0  0  0  0  0  0  0  0  0
   -0.5490    3.9510    0.0000 C   0  0  0  0  0  0  0  0  0  0  0  0
    0.9510    3.9510    0.0000 C   0  0  0  0  0  0  0  0  0  0  0  0
    1.7010    2.6519    0.0000 O   0  0  0  0  0  0  0  0  0  0  0  0
    0.0000    6.0000    0.0000 C   0  0  0  0  0  0  0  0  0  0  0  0
    1.2990    5.2500    0.0000 C   0  0  0  0  0  0  0  0  0  0  0  0
    2.5981    6.0000    0.0000 C   0  0  0  0  0  0  0  0  0  0  0  0
    3.8971    5.2500    0.0000 N   0  0  0  0  0  0  0  0  0  0  0  0
    5.1962    6.0000    0.0000 S   0  0  0  0  0  0  0  0  0  0  0  0
    4.4462    7.2990    0.0000 O   0  0  0  0  0  0  0  0  0  0  0  0
    5.5076    5.2662    0.0000 O   0  0  0  0  0  0  0  0  0  0  0  0
    6.4952    6.7500    0.0000 C   0  0  0  0  0  0  0  0  0  0  0  0
    5.7452    8.0490    0.0000 F   0  0  0  0  0  0  0  0  0  0  0  0
    7.7942    7.5000    0.0000 F   0  0  0  0  0  0  0  0  0  0  0  0
    7.2452    5.4510    0.0000 C   0  0  0  0  0  0  0  0  0  0  0  0
    6.5378    4.9179    0.0000 F   0  0  0  0  0  0  0  0  0  0  0  0
    8.5442    6.2010    0.0000 F   0  0  0  0  0  0  0  0  0  0  0  0
    7.9952    4.1519    0.0000 C   0  0  0  0  0  0  0  0  0  0  0  0
    9.2942    4.9019    0.0000 F   0  0  0  0  0  0  0  0  0  0  0  0
    6.6962    3.4019    0.0000 F   0  0  0  0  0  0  0  0  0  0  0  0
    8.7452    2.8529    0.0000 C   0  0  0  0  0  0  0  0  0  0  0  0
    7.4462    2.1029    0.0000 F   0  0  0  0  0  0  0  0  0  0  0  0
   10.0442    3.6029    0.0000 F   0  0  0  0  0  0  0  0  0  0  0  0
    9.4952    1.5538    0.0000 C   0  0  0  0  0  0  0  0  0  0  0  0
    8.1962    0.8038    0.0000 F   0  0  0  0  0  0  0  0  0  0  0  0
   10.7942    2.3038    0.0000 F   0  0  0  0  0  0  0  0  0  0  0  0
   10.2452    0.2548    0.0000 C   0  0  0  0  0  0  0  0  0  0  0  0
   11.5442    1.0048    0.0000 F   0  0  0  0  0  0  0  0  0  0  0  0
    8.9462   -0.4952    0.0000 F   0  0  0  0  0  0  0  0  0  0  0  0
   10.9952   -1.0442    0.0000 C   0  0  0  0  0  0  0  0  0  0  0  0
    9.6962   -1.7942    0.0000 F   0  0  0  0  0  0  0  0  0  0  0  0
   12.2942   -0.2942    0.0000 F   0  0  0  0  0  0  0  0  0  0  0  0
   11.7452   -2.3433    0.0000 C   0  0  0  0  0  0  0  0  0  0  0  0
   12.4952   -3.6423    0.0000 F   0  0  0  0  0  0  0  0  0  0  0  0
   13.0442   -1.5933    0.0000 F   0  0  0  0  0  0  0  0  0  0  0  0
   10.4462   -3.0933    0.0000 F   0  0  0  0  0  0  0  0  0  0  0  0
   -2.0490    6.5490    0.0000 C   0  0  0  0  0  0  0  0  0  0  0  0
   -1.2990    7.8481    0.0000 C   0  0  0  0  0  0  0  0  0  0  0  0
   -2.0490    9.1471    0.0000 C   0  0  0  0  0  0  0  0  0  0  0  0
   -1.2990   10.4462    0.0000 S   0  0  0  0  0  0  0  0  0  0  0  0
   -2.5981   11.1962    0.0000 O   0  0  0  0  0  0  0  0  0  0  0  0
   -0.0000    9.6962    0.0000 O   0  0  0  0  0  0  0  0  0  0  0  0
   -0.5490   11.7452    0.0000 O   0  0  0  0  0  0  0  0  0  0  0  0
  1  2  1  0
  2  3  1  0
  3  4  1  0
  4  5  1  0
  2  6  1  0
  6  7  1  0
  7  8  1  0
  8  9  1  0
  9 10  1  0
 10 11  2  0
 10 12  2  0
 10 13  1  0
 13 14  1  0
 13 15  1  0
 13 16  1  0
 16 17  1  0
 16 18  1  0
 16 19  1  0
 19 20  1  0
 19 21  1  0
 19 22  1  0
 22 23  1  0
 22 24  1  0
 22 25  1  0
 25 26  1  0
 25 27  1  0
 25 28  1  0
 28 29  1  0
 28 30  1  0
 28 31  1  0
 31 32  1  0
 31 33  1  0
 31 34  1  0
 34 35  1  0
 34 36  1  0
 34 37  1  0
  2 38  1  0
 38 39  1  0
 39 40  1  0
 40 41  1  0
 41 42  2  0
 41 43  2  0
 41 44  1  0
M  CHG  1   2   1
M  END
$$$$

     RDKit          2D

 44 43  0  0  0  0  0  0  0  0999 V2000
    0.0000    0.0000    0.0000 C   0  0  0  0  0  0  0  0  0  0  0  0
    1.2990    0.7500    0.0000 N   0  0  0  0  0  0  0  0  0  0  0  0
    2.5981    1.5000    0.0000 C   0  0  0  0  0  0  0  0  0  0  0  0
    2.0490   -0.5490    0.0000 C   0  0  0  0  0  0  0  0  0  0  0  0
    3.5490   -0.5490    0.0000 C   0  0  0  0  0  0  0  0  0  0  0  0
    4.2990   -1.8481    0.0000 C   0  0  0  0  0  0  0  0  0  0  0  0
    5.7990   -1.8481    0.0000 N   0  0  0  0  0  0  0  0  0  0  0  0
    6.5490   -3.1471    0.0000 C   0  0  0  0  0  0  0  0  0  0  0  0
    8.0490   -3.1471    0.0000 C   0  0  0  0  0  0  0  0  0  0  0  0
    8.9518   -1.9492    0.0000 O   0  0  0  0  0  0  0  0  0  0  0  0
    8.7990   -4.4462    0.0000 O   0  0  0  0  0  0  0  0  0  0  0  0
    6.5490   -0.5490    0.0000 S   0  0  0  0  0  0  0  0  0  0  0  0
    5.2500    0.2010    0.0000 O   0  0  0  0  0  0  0  0  0  0  0  0
    7.1857   -1.0288    0.0000 O   0  0  0  0  0  0  0  0  0  0  0  0
    7.2990    0.7500    0.0000 C   0  0  0  0  0  0  0  0  0  0  0  0
    6.0000    1.5000    0.0000 F   0  0  0  0  0  0  0  0  0  0  0  0
    8.0490    2.0490    0.0000 F   0  0  0  0  0  0  0  0  0  0  0  0
    8.5981    0.0000    0.0000 C   0  0  0  0  0  0  0  0  0  0  0  0
    9.3481    1.2990    0.0000 F   0  0  0  0  0  0  0  0  0  0  0  0
    8.2520   -0.8153    0.0000 F   0  0  0  0  0  0  0  0  0  0  0  0
    9.8971   -0.7500    0.0000 C   0  0  0  0  0  0  0  0  0  0  0  0
   10.6471    0.5490    0.0000 F   0  0  0  0  0  0  0  0  0  0  0  0
    9.3111   -2.1308    0.0000 F   0  0  0  0  0  0  0  0  0  0  0  0
   11.1962   -1.5000    0.0000 C   0  0  0  0  0  0  0  0  0  0  0  0
   11.9462   -0.2010    0.0000 F   0  0  0  0  0  0  0  0  0  0  0  0
   10.4462   -2.7990    0.0000 F   0  0  0  0  0  0  0  0  0  0  0  0
   12.4952   -2.2500    0.0000 C   0  0  0  0  0  0  0  0  0  0  0  0
   13.2452   -0.9510    0.0000 F   0  0  0  0  0  0  0  0  0  0  0  0
   11.7452   -3.5490    0.0000 F   0  0  0  0  0  0  0  0  0  0  0  0
   13.7942   -3.0000    0.0000 C   0  0  0  0  0  0  0  0  0  0  0  0
   14.5442   -1.7010    0.0000 F   0  0  0  0  0  0  0  0  0  0  0  0
   13.0442   -4.2990    0.0000 F   0  0  0  0  0  0  0  0  0  0  0  0
   15.0933   -3.7500    0.0000 C   0  0  0  0  0  0  0  0  0  0  0  0
   16.3923   -4.5000    0.0000 F   0  0  0  0  0  0  0  0  0  0  0  0
   15.8433   -2.4510    0.0000 F   0  0  0  0  0  0  0  0  0  0  0  0
   14.3433   -5.0490    0.0000 F   0  0  0  0  0  0  0  0  0  0  0  0
    0.5490    2.0490    0.0000 C   0  0  0  0  0  0  0  0  0  0  0  0
    1.2990    3.3481    0.0000 C   0  0  0  0  0  0  0  0  0  0  0  0
    2.7990    3.3481    0.0000 O   0  0  0  0  0  0  0  0  0  0  0  0
    0.5490    4.6471    0.0000 C   0  0  0  0  0  0  0  0  0  0  0  0
    1.2990    5.9462    0.0000 S   0  0  0  0  0  0  0  0  0  0  0  0
    0.0000    6.6962    0.0000 O   0  0  0  0  0  0  0  0  0  0  0  0
    2.5981    5.1962    0.0000 O   0  0  0  0  0  0  0  0  0  0  0  0
    2.0490    7.2452    0.0000 O   0  0  0  0  0  0  0  0  0  0  0  0
  1  2  1  0
  2  3  1  0
  2  4  1  0
  4  5  1  0
  5  6  1  0
  6  7  1  0
  7  8  1  0
  8  9  1  0
  9 10  2  0
  9 11  1  0
  7 12  1  0
 12 13  2  0
 12 14  2  0
 12 15  1  0
 15 16  1  0
 15 17  1  0
 15 18  1  0
 18 19  1  0
 18 20  1  0
 18 21  1  0
 21 22  1  0
 21 23  1  0
 21 24  1  0
 24 25  1  0
 24 26  1  0
 24 27  1  0
 27 28  1  0
 27 29  1  0
 27 30  1  0
 30 31  1  0
 30 32  1  0
 30 33  1  0
 33 34  1  0
 33 35  1  0
 33 36  1  0
  2 37  1  0
 37 38  1  0
 38 39  1  0
 38 40  1  0
 40 41  1  0
 41 42  2  0
 41 43  2  0
 41 44  1  0
M  CHG  1   2   1
M  END
$$$$

     RDKit          2D

 47 46  0  0  0  0  0  0  0  0999 V2000
   10.2990   -5.9462    0.0000 C   0  0  0  0  0  0  0  0  0  0  0  0
   10.2990   -4.4462    0.0000 N   0  0  0  0  0  0  0  0  0  0  0  0
   10.2990   -2.9462    0.0000 C   0  0  0  0  0  0  0  0  0  0  0  0
    8.7990   -4.4462    0.0000 C   0  0  0  0  0  0  0  0  0  0  0  0
    8.0490   -3.1471    0.0000 C   0  0  0  0  0  0  0  0  0  0  0  0
    6.5490   -3.1471    0.0000 C   0  0  0  0  0  0  0  0  0  0  0  0
    5.7990   -1.8481    0.0000 N   0  0  0  0  0  0  0  0  0  0  0  0
    4.2990   -1.8481    0.0000 C   0  0  0  0  0  0  0  0  0  0  0  0
    3.5490   -0.5490    0.0000 C   0  0  0  0  0  0  0  0  0  0  0  0
    4.1351    0.8317    0.0000 O   0  0  0  0  0  0  0  0  0  0  0  0
    2.0490   -0.5490    0.0000 O   0  0  0  0  0  0  0  0  0  0  0  0
    6.5490   -0.5490    0.0000 S   0  0  0  0  0  0  0  0  0  0  0  0
    7.8481   -1.2990    0.0000 O   0  0  0  0  0  0  0  0  0  0  0  0
    5.8152   -0.2376    0.0000 O   0  0  0  0  0  0  0  0  0  0  0  0
    7.2990    0.7500    0.0000 C   0  0  0  0  0  0  0  0  0  0  0  0
    8.5981    0.0000    0.0000 F   0  0  0  0  0  0  0  0  0  0  0  0
    8.0490    2.0490    0.0000 F   0  0  0  0  0  0  0  0  0  0  0  0
    6.0000    1.5000    0.0000 C   0  0  0  0  0  0  0  0  0  0  0  0
    6.7500    2.7990    0.0000 F   0  0  0  0  0  0  0  0  0  0  0  0
    5.4669    0.7926    0.0000 F   0  0  0  0  0  0  0  0  0  0  0  0
    4.7010    2.2500    0.0000 C   0  0  0  0  0  0  0  0  0  0  0  0
    5.4510    3.5490    0.0000 F   0  0  0  0  0  0  0  0  0  0  0  0
    3.7982    1.0521    0.0000 F   0  0  0  0  0  0  0  0  0  0  0  0
    3.4019    3.0000    0.0000 C   0  0  0  0  0  0  0  0  0  0  0  0
    4.1519    4.2990    0.0000 F   0  0  0  0  0  0  0  0  0  0  0  0
    2.6519    1.7010    0.0000 F   0  0  0  0  0  0  0  0  0  0  0  0
    2.1029    3.7500    0.0000 C   0  0  0  0  0  0  0  0  0  0  0  0
    2.8529    5.0490    0.0000 F   0  0  0  0  0  0  0  0  0  0  0  0
    1.3529    2.4510    0.0000 F   0  0  0  0  0  0  0  0  0  0  0  0
    0.8038    4.5000    0.0000 C   0  0  0  0  0  0  0  0  0  0  0  0
    1.5538    5.7990    0.0000 F   0  0  0  0  0  0  0  0  0  0  0  0
    0.0538    3.2010    0.0000 F   0  0  0  0  0  0  0  0  0  0  0  0
   -0.4952    5.2500    0.0000 C   0  0  0  0  0  0  0  0  0  0  0  0
    0.2548    6.5490    0.0000 F   0  0  0  0  0  0  0  0  0  0  0  0
   -1.2452    3.9510    0.0000 F   0  0  0  0  0  0  0  0  0  0  0  0
   -1.7942    6.0000    0.0000 C   0  0  0  0  0  0  0  0  0  0  0  0
   -3.0933    6.7500    0.0000 F   0  0  0  0  0  0  0  0  0  0  0  0
   -2.5442    4.7010    0.0000 F   0  0  0  0  0  0  0  0  0  0  0  0
   -1.0442    7.2990    0.0000 F   0  0  0  0  0  0  0  0  0  0  0  0
   11.7990   -4.4462    0.0000 C   0  0  0  0  0  0  0  0  0  0  0  0
   12.5490   -3.1471    0.0000 C   0  0  0  0  0  0  0  0  0  0  0  0
   11.7990   -1.8481    0.0000 O   0  0  0  0  0  0  0  0  0  0  0  0
   14.0490   -3.1471    0.0000 C   0  0  0  0  0  0  0  0  0  0  0  0
   14.7990   -1.8481    0.0000 S   0  0  0  0  0  0  0  0  0  0  0  0
   16.0981   -2.5981    0.0000 O   0  0  0  0  0  0  0  0  0  0  0  0
   13.5000   -1.0981    0.0000 O   0  0  0  0  0  0  0  0  0  0  0  0
   15.5490   -0.5490    0.0000 O   0  0  0  0  0  0  0  0  0  0  0  0
  1  2  1  0
  2  3  1  0
  2  4  1  0
  4  5  1  0
  5  6  1  0
  6  7  1  0
  7  8  1  0
  8  9  1  0
  9 10  2  0
  9 11  1  0
  7 12  1  0
 12 13  2  0
 12 14  2  0
 12 15  1  0
 15 16  1  0
 15 17  1  0
 15 18  1  0
 18 19  1  0
 18 20  1  0
 18 21  1  0
 21 22  1  0
 21 23  1  0
 21 24  1  0
 24 25  1  0
 24 26  1  0
 24 27  1  0
 27 28  1  0
 27 29  1  0
 27 30  1  0
 30 31  1  0
 30 32  1  0
 30 33  1  0
 33 34  1  0
 33 35  1  0
 33 36  1  0
 36 37  1  0
 36 38  1  0
 36 39  1  0
  2 40  1  0
 40 41  1  0
 41 42  1  0
 41 43  1  0
 43 44  1  0
 44 45  2  0
 44 46  2  0
 44 47  1  0
M  CHG  1   2   1
M  END
$$$$

     RDKit          2D

 33 32  0  0  0  0  0  0  0  0999 V2000
    7.0981    4.0981    0.0000 C   0  0  0  0  0  0  0  0  0  0  0  0
    5.7990    3.3481    0.0000 N   0  0  0  0  0  0  0  0  0  0  0  0
    4.5000    2.5981    0.0000 C   0  0  0  0  0  0  0  0  0  0  0  0
    6.5490    2.0490    0.0000 C   0  0  0  0  0  0  0  0  0  0  0  0
    5.7990    0.7500    0.0000 C   0  0  0  0  0  0  0  0  0  0  0  0
    6.5490   -0.5490    0.0000 C   0  0  0  0  0  0  0  0  0  0  0  0
    5.7990   -1.8481    0.0000 N   0  0  0  0  0  0  0  0  0  0  0  0
    6.5490   -3.1471    0.0000 S   0  0  0  0  0  0  0  0  0  0  0  0
    7.8481   -2.3971    0.0000 O   0  0  0  0  0  0  0  0  0  0  0  0
    5.8152   -3.4586    0.0000 O   0  0  0  0  0  0  0  0  0  0  0  0
    7.2990   -4.4462    0.0000 C   0  0  0  0  0  0  0  0  0  0  0  0
    8.5981   -3.6962    0.0000 F   0  0  0  0  0  0  0  0  0  0  0  0
    8.0490   -5.7452    0.0000 F   0  0  0  0  0  0  0  0  0  0  0  0
    6.0000   -5.1962    0.0000 C   0  0  0  0  0  0  0  0  0  0  0  0
    5.4669   -4.4888    0.0000 F   0  0  0  0  0  0  0  0  0  0  0  0
    6.7500   -6.4952    0.0000 F   0  0  0  0  0  0  0  0  0  0  0  0
    4.7010   -5.9462    0.0000 C   0  0  0  0  0  0  0  0  0  0  0  0
    5.4510   -7.2452    0.0000 F   0  0  0  0  0  0  0  0  0  0  0  0
    3.9510   -4.6471    0.0000 F   0  0  0  0  0  0  0  0  0  0  0  0
    3.4019   -6.6962    0.0000 C   0  0  0  0  0  0  0  0  0  0  0  0
    4.1519   -7.9952    0.0000 F   0  0  0  0  0  0  0  0  0  0  0  0
    2.6519   -5.3971    0.0000 F   0  0  0  0  0  0  0  0  0  0  0  0
    2.1029   -7.4462    0.0000 C   0  0  0  0  0  0  0  0  0  0  0  0
    1.3529   -6.1471    0.0000 F   0  0  0  0  0  0  0  0  0  0  0  0
    2.8529   -8.7452    0.0000 F   0  0  0  0  0  0  0  0  0  0  0  0
    0.8038   -8.1962    0.0000 C   0  0  0  0  0  0  0  0  0  0  0  0
   -0.4952   -8.9462    0.0000 F   0  0  0  0  0  0  0  0  0  0  0  0
    1.5538   -9.4952    0.0000 F   0  0  0  0  0  0  0  0  0  0  0  0
    0.0538   -6.8971    0.0000 F   0  0  0  0  0  0  0  0  0  0  0  0
    5.0490    4.6471    0.0000 C   0  0  0  0  0  0  0  0  0  0  0  0
    3.5490    4.6471    0.0000 C   0  0  0  0  0  0  0  0  0  0  0  0
    2.7990    3.3481    0.0000 O   0  0  0  0  0  0  0  0  0  0  0  0
    2.7990    5.9462    0.0000 O   0  0  0  0  0  0  0  0  0  0  0  0
  1  2  1  0
  2  3  1  0
  2  4  1  0
  4  5  1  0
  5  6  1  0
  6  7  1  0
  7  8  1  0
  8  9  2  0
  8 10  2  0
  8 11  1  0
 11 12  1  0
 11 13  1  0
 11 14  1  0
 14 15  1  0
 14 16  1  0
 14 17  1  0
 17 18  1  0
 17 19  1  0
 17 20  1  0
 20 21  1  0
 20 22  1  0
 20 23  1  0
 23 24  1  0
 23 25  1  0
 23 26  1  0
 26 27  1  0
 26 28  1  0
 26 29  1  0
  2 30  1  0
 30 31  1  0
 31 32  2  0
 31 33  1  0
M  CHG  2   2   1  33  -1
M  END
$$$$

     RDKit          2D

 45 44  0  0  0  0  0  0  0  0999 V2000
    2.0490    6.5490    0.0000 O   0  0  0  0  0  0  0  0  0  0  0  0
    1.2990    5.2500    0.0000 S   0  0  0  0  0  0  0  0  0  0  0  0
    0.5490    3.9510    0.0000 O   0  0  0  0  0  0  0  0  0  0  0  0
    0.0000    6.0000    0.0000 O   0  0  0  0  0  0  0  0  0  0  0  0
    2.5981    4.5000    0.0000 C   0  0  0  0  0  0  0  0  0  0  0  0
    2.5981    3.0000    0.0000 C   0  0  0  0  0  0  0  0  0  0  0  0
    3.8971    2.2500    0.0000 C   0  0  0  0  0  0  0  0  0  0  0  0
    3.8971    0.7500    0.0000 N   0  0  0  0  0  0  0  0  0  0  0  0
    5.1962    0.0000    0.0000 S   0  0  0  0  0  0  0  0  0  0  0  0
    5.9462    1.2990    0.0000 O   0  0  0  0  0  0  0  0  0  0  0  0
    4.7164   -0.6366    0.0000 O   0  0  0  0  0  0  0  0  0  0  0  0
    6.4952   -0.7500    0.0000 C   0  0  0  0  0  0  0  0  0  0  0  0
    7.2452    0.5490    0.0000 F   0  0  0  0  0  0  0  0  0  0  0  0
    7.7942   -1.5000    0.0000 F   0  0  0  0  0  0  0  0  0  0  0  0
    5.7452   -2.0490    0.0000 C   0  0  0  0  0  0  0  0  0  0  0  0
    4.9299   -1.7030    0.0000 F   0  0  0  0  0  0  0  0  0  0  0  0
    7.0442   -2.7990    0.0000 F   0  0  0  0  0  0  0  0  0  0  0  0
    4.9952   -3.3481    0.0000 C   0  0  0  0  0  0  0  0  0  0  0  0
    6.2942   -4.0981    0.0000 F   0  0  0  0  0  0  0  0  0  0  0  0
    3.6962   -2.5981    0.0000 F   0  0  0  0  0  0  0  0  0  0  0  0
    4.2452   -4.6471    0.0000 C   0  0  0  0  0  0  0  0  0  0  0  0
    2.9462   -3.8971    0.0000 F   0  0  0  0  0  0  0  0  0  0  0  0
    5.5442   -5.3971    0.0000 F   0  0  0  0  0  0  0  0  0  0  0  0
    3.4952   -5.9462    0.0000 C   0  0  0  0  0  0  0  0  0  0  0  0
    4.7942   -6.6962    0.0000 F   0  0  0  0  0  0  0  0  0  0  0  0
    2.1962   -5.1962    0.0000 F   0  0  0  0  0  0  0  0  0  0  0  0
    2.7452   -7.2452    0.0000 C   0  0  0  0  0  0  0  0  0  0  0  0
    1.4462   -6.4952    0.0000 F   0  0  0  0  0  0  0  0  0  0  0  0
    4.0442   -7.9952    0.0000 F   0  0  0  0  0  0  0  0  0  0  0  0
    1.9952   -8.5442    0.0000 C   0  0  0  0  0  0  0  0  0  0  0  0
    0.6962   -7.7942    0.0000 F   0  0  0  0  0  0  0  0  0  0  0  0
    3.2942   -9.2942    0.0000 F   0  0  0  0  0  0  0  0  0  0  0  0
    1.2452   -9.8433    0.0000 C   0  0  0  0  0  0  0  0  0  0  0  0
    2.5442  -10.5933    0.0000 F   0  0  0  0  0  0  0  0  0  0  0  0
   -0.0538   -9.0933    0.0000 F   0  0  0  0  0  0  0  0  0  0  0  0
    0.4952  -11.1423    0.0000 C   0  0  0  0  0  0  0  0  0  0  0  0
   -0.8038  -10.3923    0.0000 F   0  0  0  0  0  0  0  0  0  0  0  0
    1.7942  -11.8923    0.0000 F   0  0  0  0  0  0  0  0  0  0  0  0
   -0.2548  -12.4413    0.0000 C   0  0  0  0  0  0  0  0  0  0  0  0
    1.0442  -13.1913    0.0000 F   0  0  0  0  0  0  0  0  0  0  0  0
   -1.5538  -11.6913    0.0000 F   0  0  0  0  0  0  0  0  0  0  0  0
   -1.0048  -13.7404    0.0000 C   0  0  0  0  0  0  0  0  0  0  0  0
   -1.7548  -15.0394    0.0000 F   0  0  0  0  0  0  0  0  0  0  0  0
   -2.3038  -12.9904    0.0000 F   0  0  0  0  0  0  0  0  0  0  0  0
    0.2942  -14.4904    0.0000 F   0  0  0  0  0  0  0  0  0  0  0  0
  1  2  2  0
  2  3  2  0
  2  4  1  0
  2  5  1  0
  5  6  1  0
  6  7  1  0
  7  8  1  0
  8  9  1  0
  9 10  2  0
  9 11  2  0
  9 12  1  0
 12 13  1  0
 12 14  1  0
 12 15  1  0
 15 16  1  0
 15 17  1  0
 15 18  1  0
 18 19  1  0
 18 20  1  0
 18 21  1  0
 21 22  1  0
 21 23  1  0
 21 24  1  0
 24 25  1  0
 24 26  1  0
 24 27  1  0
 27 28  1  0
 27 29  1  0
 27 30  1  0
 30 31  1  0
 30 32  1  0
 30 33  1  0
 33 34  1  0
 33 35  1  0
 33 36  1  0
 36 37  1  0
 36 38  1  0
 36 39  1  0
 39 40  1  0
 39 41  1  0
 39 42  1  0
 42 43  1  0
 42 44  1  0
 42 45  1  0
M  END
$$$$

     RDKit          2D

 58 57  0  0  0  0  0  0  0  0999 V2000
   10.2990   -5.9462    0.0000 C   0  0  0  0  0  0  0  0  0  0  0  0
   10.2990   -4.4462    0.0000 N   0  0  0  0  0  0  0  0  0  0  0  0
   10.2990   -2.9462    0.0000 C   0  0  0  0  0  0  0  0  0  0  0  0
    8.7990   -4.4462    0.0000 C   0  0  0  0  0  0  0  0  0  0  0  0
    8.0490   -3.1471    0.0000 C   0  0  0  0  0  0  0  0  0  0  0  0
    6.5490   -3.1471    0.0000 C   0  0  0  0  0  0  0  0  0  0  0  0
    5.7990   -1.8481    0.0000 N   0  0  0  0  0  0  0  0  0  0  0  0
    4.2990   -1.8481    0.0000 C   0  0  0  0  0  0  0  0  0  0  0  0
    3.5490   -0.5490    0.0000 C   0  0  0  0  0  0  0  0  0  0  0  0
    4.1351    0.8317    0.0000 O   0  0  0  0  0  0  0  0  0  0  0  0
    2.0490   -0.5490    0.0000 O   0  0  0  0  0  0  0  0  0  0  0  0
    6.5490   -0.5490    0.0000 S   0  0  0  0  0  0  0  0  0  0  0  0
    7.8481   -1.2990    0.0000 O   0  0  0  0  0  0  0  0  0  0  0  0
    5.8152   -0.2376    0.0000 O   0  0  0  0  0  0  0  0  0  0  0  0
    7.2990    0.7500    0.0000 C   0  0  0  0  0  0  0  0  0  0  0  0
    8.5981    0.0000    0.0000 F   0  0  0  0  0  0  0  0  0  0  0  0
    8.0490    2.0490    0.0000 F   0  0  0  0  0  0  0  0  0  0  0  0
    6.0000    1.5000    0.0000 C   0  0  0  0  0  0  0  0  0  0  0  0
    5.4669    0.7926    0.0000 F   0  0  0  0  0  0  0  0  0  0  0  0
    6.7500    2.7990    0.0000 F   0  0  0  0  0  0  0  0  0  0  0  0
    4.7010    2.2500    0.0000 C   0  0  0  0  0  0  0  0  0  0  0  0
    3.7982    1.0521    0.0000 F   0  0  0  0  0  0  0  0  0  0  0  0
    5.4510    3.5490    0.0000 F   0  0  0  0  0  0  0  0  0  0  0  0
    3.4019    3.0000    0.0000 C   0  0  0  0  0  0  0  0  0  0  0  0
    2.6519    1.7010    0.0000 F   0  0  0  0  0  0  0  0  0  0  0  0
    4.1519    4.2990    0.0000 F   0  0  0  0  0  0  0  0  0  0  0  0
    2.1029    3.7500    0.0000 C   0  0  0  0  0  0  0  0  0  0  0  0
    2.8529    5.0490    0.0000 F   0  0  0  0  0  0  0  0  0  0  0  0
    1.3529    2.4510    0.0000 F   0  0  0  0  0  0  0  0  0  0  0  0
    0.8038    4.5000    0.0000 C   0  0  0  0  0  0  0  0  0  0  0  0
    1.5538    5.7990    0.0000 F   0  0  0  0  0  0  0  0  0  0  0  0
    0.0538    3.2010    0.0000 F   0  0  0  0  0  0  0  0  0  0  0  0
   -0.4952    5.2500    0.0000 C   0  0  0  0  0  0  0  0  0  0  0  0
   -1.2452    3.9510    0.0000 F   0  0  0  0  0  0  0  0  0  0  0  0
    0.2548    6.5490    0.0000 F   0  0  0  0  0  0  0  0  0  0  0  0
   -1.7942    6.0000    0.0000 C   0  0  0  0  0  0  0  0  0  0  0  0
   -1.0442    7.2990    0.0000 F   0  0  0  0  0  0  0  0  0  0  0  0
   -2.5442    4.7010    0.0000 F   0  0  0  0  0  0  0  0  0  0  0  0
   -3.0933    6.7500    0.0000 C   0  0  0  0  0  0  0  0  0  0  0  0
   -3.8433    5.4510    0.0000 F   0  0  0  0  0  0  0  0  0  0  0  0
   -2.3433    8.0490    0.0000 F   0  0  0  0  0  0  0  0  0  0  0  0
   -4.3923    7.5000    0.0000 C   0  0  0  0  0  0  0  0  0  0  0  0
   -3.6423    8.7990    0.0000 F   0  0  0  0  0  0  0  0  0  0  0  0
   -5.1423    6.2010    0.0000 F   0  0  0  0  0  0  0  0  0  0  0  0
   -5.6913    8.2500    0.0000 C   0  0  0  0  0  0  0  0  0  0  0  0
   -6.4413    6.9510    0.0000 F   0  0  0  0  0  0  0  0  0  0  0  0
   -4.9413    9.5490    0.0000 F   0  0  0  0  0  0  0  0  0  0  0  0
   -6.9904    9.0000    0.0000 C   0  0  0  0  0  0  0  0  0  0  0  0
   -8.2894    9.7500    0.0000 F   0  0  0  0  0  0  0  0  0  0  0  0
   -6.2404   10.2990    0.0000 F   0  0  0  0  0  0  0  0  0  0  0  0
   -7.7404    7.7010    0.0000 F   0  0  0  0  0  0  0  0  0  0  0  0
   11.7990   -4.4462    0.0000 C   0  0  0  0  0  0  0  0  0  0  0  0
   12.5490   -3.1471    0.0000 C   0  0  0  0  0  0  0  0  0  0  0  0
   14.0490   -3.1471    0.0000 C   0  0  0  0  0  0  0  0  0  0  0  0
   14.7990   -1.8481    0.0000 S   0  0  0  0  0  0  0  0  0  0  0  0
   16.0981   -2.5981    0.0000 O   0  0  0  0  0  0  0  0  0  0  0  0
   13.5000   -1.0981    0.0000 O   0  0  0  0  0  0  0  0  0  0  0  0
   15.5490   -0.5490    0.0000 O   0  0  0  0  0  0  0  0  0  0  0  0
  1  2  1  0
  2  3  1  0
  2  4  1  0
  4  5  1  0
  5  6  1  0
  6  7  1  0
  7  8  1  0
  8  9  1  0
  9 10  2  0
  9 11  1  0
  7 12  1  0
 12 13  2  0
 12 14  2  0
 12 15  1  0
 15 16  1  0
 15 17  1  0
 15 18  1  0
 18 19  1  0
 18 20  1  0
 18 21  1  0
 21 22  1  0
 21 23  1  0
 21 24  1  0
 24 25  1  0
 24 26  1  0
 24 27  1  0
 27 28  1  0
 27 29  1  0
 27 30  1  0
 30 31  1  0
 30 32  1  0
 30 33  1  0
 33 34  1  0
 33 35  1  0
 33 36  1  0
 36 37  1  0
 36 38  1  0
 36 39  1  0
 39 40  1  0
 39 41  1  0
 39 42  1  0
 42 43  1  0
 42 44  1  0
 42 45  1  0
 45 46  1  0
 45 47  1  0
 45 48  1  0
 48 49  1  0
 48 50  1  0
 48 51  1  0
  2 52  1  0
 52 53  1  0
 53 54  1  0
 54 55  1  0
 55 56  2  0
 55 57  2  0
 55 58  1  0
M  CHG  2   2   1  58  -1
M  END
$$$$

     RDKit          2D

 35 34  0  0  0  0  0  0  0  0999 V2000
   -9.7500    2.7990    0.0000 O   0  0  0  0  0  0  0  0  0  0  0  0
   -8.2500    2.7990    0.0000 S   0  0  0  0  0  0  0  0  0  0  0  0
   -7.4588    2.8962    0.0000 O   0  0  0  0  0  0  0  0  0  0  0  0
   -8.2500    4.2990    0.0000 O   0  0  0  0  0  0  0  0  0  0  0  0
   -8.2500    1.2990    0.0000 C   0  0  0  0  0  0  0  0  0  0  0  0
   -9.7500    1.2990    0.0000 F   0  0  0  0  0  0  0  0  0  0  0  0
   -8.2500   -0.2010    0.0000 F   0  0  0  0  0  0  0  0  0  0  0  0
   -6.7500    1.2990    0.0000 C   0  0  0  0  0  0  0  0  0  0  0  0
   -6.7500   -0.2010    0.0000 F   0  0  0  0  0  0  0  0  0  0  0  0
   -6.6420    2.1782    0.0000 F   0  0  0  0  0  0  0  0  0  0  0  0
   -5.2500    1.2990    0.0000 C   0  0  0  0  0  0  0  0  0  0  0  0
   -5.2500    2.7990    0.0000 F   0  0  0  0  0  0  0  0  0  0  0  0
   -5.2500   -0.2010    0.0000 F   0  0  0  0  0  0  0  0  0  0  0  0
   -3.7500    1.2990    0.0000 C   0  0  0  0  0  0  0  0  0  0  0  0
   -3.7500   -0.2010    0.0000 F   0  0  0  0  0  0  0  0  0  0  0  0
   -3.7500    2.7990    0.0000 F   0  0  0  0  0  0  0  0  0  0  0  0
   -2.2500    1.2990    0.0000 C   0  0  0  0  0  0  0  0  0  0  0  0
   -2.2500    2.7990    0.0000 F   0  0  0  0  0  0  0  0  0  0  0  0
   -2.2500   -0.2010    0.0000 F   0  0  0  0  0  0  0  0  0  0  0  0
   -0.7500    1.2990    0.0000 C   0  0  0  0  0  0  0  0  0  0  0  0
    0.0000    2.5981    0.0000 F   0  0  0  0  0  0  0  0  0  0  0  0
    0.0000    0.0000    0.0000 C   0  0  0  0  0  0  0  0  0  0  0  0
   -0.7500   -1.2990    0.0000 F   0  0  0  0  0  0  0  0  0  0  0  0
    1.5000    0.0000    0.0000 C   0  0  0  0  0  0  0  0  0  0  0  0
    2.2500    1.2990    0.0000 F   0  0  0  0  0  0  0  0  0  0  0  0
    2.2500   -1.2990    0.0000 C   0  0  0  0  0  0  0  0  0  0  0  0
    3.5490   -0.5490    0.0000 F   0  0  0  0  0  0  0  0  0  0  0  0
    0.9510   -2.0490    0.0000 F   0  0  0  0  0  0  0  0  0  0  0  0
    3.0000   -2.5981    0.0000 C   0  0  0  0  0  0  0  0  0  0  0  0
    1.7010   -3.3481    0.0000 F   0  0  0  0  0  0  0  0  0  0  0  0
    4.2990   -1.8481    0.0000 F   0  0  0  0  0  0  0  0  0  0  0  0
    3.7500   -3.8971    0.0000 C   0  0  0  0  0  0  0  0  0  0  0  0
    4.5000   -5.1962    0.0000 F   0  0  0  0  0  0  0  0  0  0  0  0
    5.0490   -3.1471    0.0000 F   0  0  0  0  0  0  0  0  0  0  0  0
    2.4510   -4.6471    0.0000 F   0  0  0  0  0  0  0  0  0  0  0  0
  1  2  2  0
  2  3  2  0
  2  4  1  0
  2  5  1  0
  5  6  1  0
  5  7  1  0
  5  8  1  0
  8  9  1  0
  8 10  1  0
  8 11  1  0
 11 12  1  0
 11 13  1  0
 11 14  1  0
 14 15  1  0
 14 16  1  0
 14 17  1  0
 17 18  1  0
 17 19  1  0
 17 20  1  0
 20 21  1  0
 20 22  1  0
 22 23  1  0
 22 24  2  0
 24 25  1  0
 24 26  1  0
 26 27  1  0
 26 28  1  0
 26 29  1  0
 29 30  1  0
 29 31  1  0
 29 32  1  0
 32 33  1  0
 32 34  1  0
 32 35  1  0
M  END
$$$$

     RDKit          2D

 38 37  0  0  0  0  0  0  0  0999 V2000
   -9.7500    2.7990    0.0000 O   0  0  0  0  0  0  0  0  0  0  0  0
   -8.2500    2.7990    0.0000 S   0  0  0  0  0  0  0  0  0  0  0  0
   -7.4588    2.8962    0.0000 O   0  0  0  0  0  0  0  0  0  0  0  0
   -8.2500    4.2990    0.0000 O   0  0  0  0  0  0  0  0  0  0  0  0
   -8.2500    1.2990    0.0000 C   0  0  0  0  0  0  0  0  0  0  0  0
   -9.7500    1.2990    0.0000 F   0  0  0  0  0  0  0  0  0  0  0  0
   -8.2500   -0.2010    0.0000 F   0  0  0  0  0  0  0  0  0  0  0  0
   -6.7500    1.2990    0.0000 C   0  0  0  0  0  0  0  0  0  0  0  0
   -6.7500   -0.2010    0.0000 F   0  0  0  0  0  0  0  0  0  0  0  0
   -6.6420    2.1782    0.0000 F   0  0  0  0  0  0  0  0  0  0  0  0
   -5.2500    1.2990    0.0000 C   0  0  0  0  0  0  0  0  0  0  0  0
   -5.2500    2.7990    0.0000 F   0  0  0  0  0  0  0  0  0  0  0  0
   -5.2500   -0.2010    0.0000 F   0  0  0  0  0  0  0  0  0  0  0  0
   -3.7500    1.2990    0.0000 C   0  0  0  0  0  0  0  0  0  0  0  0
   -3.7500   -0.2010    0.0000 F   0  0  0  0  0  0  0  0  0  0  0  0
   -3.7500    2.7990    0.0000 F   0  0  0  0  0  0  0  0  0  0  0  0
   -2.2500    1.2990    0.0000 C   0  0  0  0  0  0  0  0  0  0  0  0
   -2.2500    2.7990    0.0000 F   0  0  0  0  0  0  0  0  0  0  0  0
   -2.2500   -0.2010    0.0000 F   0  0  0  0  0  0  0  0  0  0  0  0
   -0.7500    1.2990    0.0000 C   0  0  0  0  0  0  0  0  0  0  0  0
    0.0000    2.5981    0.0000 F   0  0  0  0  0  0  0  0  0  0  0  0
    0.0000    0.0000    0.0000 C   0  0  0  0  0  0  0  0  0  0  0  0
   -0.7500   -1.2990    0.0000 F   0  0  0  0  0  0  0  0  0  0  0  0
    1.5000    0.0000    0.0000 C   0  0  0  0  0  0  0  0  0  0  0  0
    2.2500    1.2990    0.0000 F   0  0  0  0  0  0  0  0  0  0  0  0
    2.2500   -1.2990    0.0000 C   0  0  0  0  0  0  0  0  0  0  0  0
    3.5490   -0.5490    0.0000 F   0  0  0  0  0  0  0  0  0  0  0  0
    0.9510   -2.0490    0.0000 F   0  0  0  0  0  0  0  0  0  0  0  0
    3.0000   -2.5981    0.0000 C   0  0  0  0  0  0  0  0  0  0  0  0
    1.7010   -3.3481    0.0000 F   0  0  0  0  0  0  0  0  0  0  0  0
    4.2990   -1.8481    0.0000 F   0  0  0  0  0  0  0  0  0  0  0  0
    3.7500   -3.8971    0.0000 C   0  0  0  0  0  0  0  0  0  0  0  0
    5.0490   -3.1471    0.0000 F   0  0  0  0  0  0  0  0  0  0  0  0
    2.4510   -4.6471    0.0000 F   0  0  0  0  0  0  0  0  0  0  0  0
    4.5000   -5.1962    0.0000 C   0  0  0  0  0  0  0  0  0  0  0  0
    5.2500   -6.4952    0.0000 F   0  0  0  0  0  0  0  0  0  0  0  0
    3.2010   -5.9462    0.0000 F   0  0  0  0  0  0  0  0  0  0  0  0
    5.7990   -4.4462    0.0000 F   0  0  0  0  0  0  0  0  0  0  0  0
  1  2  2  0
  2  3  2  0
  2  4  1  0
  2  5  1  0
  5  6  1  0
  5  7  1  0
  5  8  1  0
  8  9  1  0
  8 10  1  0
  8 11  1  0
 11 12  1  0
 11 13  1  0
 11 14  1  0
 14 15  1  0
 14 16  1  0
 14 17  1  0
 17 18  1  0
 17 19  1  0
 17 20  1  0
 20 21  1  0
 20 22  1  0
 22 23  1  0
 22 24  2  0
 24 25  1  0
 24 26  1  0
 26 27  1  0
 26 28  1  0
 26 29  1  0
 29 30  1  0
 29 31  1  0
 29 32  1  0
 32 33  1  0
 32 34  1  0
 32 35  1  0
 35 36  1  0
 35 37  1  0
 35 38  1  0
M  END
$$$$

     RDKit          2D

 50 49  0  0  0  0  0  0  0  0999 V2000
   -9.7500    2.7990    0.0000 O   0  0  0  0  0  0  0  0  0  0  0  0
   -8.2500    2.7990    0.0000 S   0  0  0  0  0  0  0  0  0  0  0  0
   -7.4588    2.8962    0.0000 O   0  0  0  0  0  0  0  0  0  0  0  0
   -8.2500    4.2990    0.0000 O   0  0  0  0  0  0  0  0  0  0  0  0
   -8.2500    1.2990    0.0000 C   0  0  0  0  0  0  0  0  0  0  0  0
   -9.7500    1.2990    0.0000 F   0  0  0  0  0  0  0  0  0  0  0  0
   -8.2500   -0.2010    0.0000 F   0  0  0  0  0  0  0  0  0  0  0  0
   -6.7500    1.2990    0.0000 C   0  0  0  0  0  0  0  0  0  0  0  0
   -6.7500   -0.2010    0.0000 F   0  0  0  0  0  0  0  0  0  0  0  0
   -6.6420    2.1782    0.0000 F   0  0  0  0  0  0  0  0  0  0  0  0
   -5.2500    1.2990    0.0000 C   0  0  0  0  0  0  0  0  0  0  0  0
   -5.2500    2.7990    0.0000 F   0  0  0  0  0  0  0  0  0  0  0  0
   -5.2500   -0.2010    0.0000 F   0  0  0  0  0  0  0  0  0  0  0  0
   -3.7500    1.2990    0.0000 C   0  0  0  0  0  0  0  0  0  0  0  0
   -3.7500   -0.2010    0.0000 F   0  0  0  0  0  0  0  0  0  0  0  0
   -3.7500    2.7990    0.0000 F   0  0  0  0  0  0  0  0  0  0  0  0
   -2.2500    1.2990    0.0000 C   0  0  0  0  0  0  0  0  0  0  0  0
   -2.2500    2.7990    0.0000 F   0  0  0  0  0  0  0  0  0  0  0  0
   -2.2500   -0.2010    0.0000 F   0  0  0  0  0  0  0  0  0  0  0  0
   -0.7500    1.2990    0.0000 C   0  0  0  0  0  0  0  0  0  0  0  0
    0.0000    2.5981    0.0000 F   0  0  0  0  0  0  0  0  0  0  0  0
    0.0000    0.0000    0.0000 C   0  0  0  0  0  0  0  0  0  0  0  0
   -0.7500   -1.2990    0.0000 F   0  0  0  0  0  0  0  0  0  0  0  0
    1.5000    0.0000    0.0000 C   0  0  0  0  0  0  0  0  0  0  0  0
    2.2500    1.2990    0.0000 F   0  0  0  0  0  0  0  0  0  0  0  0
    2.2500   -1.2990    0.0000 C   0  0  0  0  0  0  0  0  0  0  0  0
    3.5490   -0.5490    0.0000 F   0  0  0  0  0  0  0  0  0  0  0  0
    0.9510   -2.0490    0.0000 F   0  0  0  0  0  0  0  0  0  0  0  0
    3.0000   -2.5981    0.0000 C   0  0  0  0  0  0  0  0  0  0  0  0
    1.7010   -3.3481    0.0000 F   0  0  0  0  0  0  0  0  0  0  0  0
    4.2990   -1.8481    0.0000 F   0  0  0  0  0  0  0  0  0  0  0  0
    3.7500   -3.8971    0.0000 C   0  0  0  0  0  0  0  0  0  0  0  0
    5.0490   -3.1471    0.0000 F   0  0  0  0  0  0  0  0  0  0  0  0
    2.4510   -4.6471    0.0000 F   0  0  0  0  0  0  0  0  0  0  0  0
    4.5000   -5.1962    0.0000 C   0  0  0  0  0  0  0  0  0  0  0  0
    3.2010   -5.9462    0.0000 F   0  0  0  0  0  0  0  0  0  0  0  0
    5.7990   -4.4462    0.0000 F   0  0  0  0  0  0  0  0  0  0  0  0
    5.2500   -6.4952    0.0000 C   0  0  0  0  0  0  0  0  0  0  0  0
    6.5490   -5.7452    0.0000 F   0  0  0  0  0  0  0  0  0  0  0  0
    3.9510   -7.2452    0.0000 F   0  0  0  0  0  0  0  0  0  0  0  0
    6.0000   -7.7942    0.0000 C   0  0  0  0  0  0  0  0  0  0  0  0
    4.7010   -8.5442    0.0000 F   0  0  0  0  0  0  0  0  0  0  0  0
    7.2990   -7.0442    0.0000 F   0  0  0  0  0  0  0  0  0  0  0  0
    6.7500   -9.0933    0.0000 C   0  0  0  0  0  0  0  0  0  0  0  0
    8.0490   -8.3433    0.0000 F   0  0  0  0  0  0  0  0  0  0  0  0
    5.4510   -9.8433    0.0000 F   0  0  0  0  0  0  0  0  0  0  0  0
    7.5000  -10.3923    0.0000 C   0  0  0  0  0  0  0  0  0  0  0  0
    8.2500  -11.6913    0.0000 F   0  0  0  0  0  0  0  0  0  0  0  0
    6.2010  -11.1423    0.0000 F   0  0  0  0  0  0  0  0  0  0  0  0
    8.7990   -9.6423    0.0000 F   0  0  0  0  0  0  0  0  0  0  0  0
  1  2  2  0
  2  3  2  0
  2  4  1  0
  2  5  1  0
  5  6  1  0
  5  7  1  0
  5  8  1  0
  8  9  1  0
  8 10  1  0
  8 11  1  0
 11 12  1  0
 11 13  1  0
 11 14  1  0
 14 15  1  0
 14 16  1  0
 14 17  1  0
 17 18  1  0
 17 19  1  0
 17 20  1  0
 20 21  1  0
 20 22  1  0
 22 23  1  0
 22 24  2  0
 24 25  1  0
 24 26  1  0
 26 27  1  0
 26 28  1  0
 26 29  1  0
 29 30  1  0
 29 31  1  0
 29 32  1  0
 32 33  1  0
 32 34  1  0
 32 35  1  0
 35 36  1  0
 35 37  1  0
 35 38  1  0
 38 39  1  0
 38 40  1  0
 38 41  1  0
 41 42  1  0
 41 43  1  0
 41 44  1  0
 44 45  1  0
 44 46  1  0
 44 47  1  0
 47 48  1  0
 47 49  1  0
 47 50  1  0
M  END
$$$$

     RDKit          2D

 27 26  0  0  0  0  0  0  0  0999 V2000
   -0.0000   -1.5000    0.0000 O   0  0  0  0  0  0  0  0  0  0  0  0
    0.0000    0.0000    0.0000 C   0  0  0  0  0  0  0  0  0  0  0  0
   -1.2990    0.7500    0.0000 O   0  0  0  0  0  0  0  0  0  0  0  0
    1.2990    0.7500    0.0000 C   0  0  0  0  0  0  0  0  0  0  0  0
    1.2990    2.2500    0.0000 F   0  0  0  0  0  0  0  0  0  0  0  0
    2.5981   -0.0000    0.0000 C   0  0  0  0  0  0  0  0  0  0  0  0
    3.3481    1.2990    0.0000 F   0  0  0  0  0  0  0  0  0  0  0  0
    1.8481   -1.2990    0.0000 F   0  0  0  0  0  0  0  0  0  0  0  0
    3.8971   -0.7500    0.0000 C   0  0  0  0  0  0  0  0  0  0  0  0
    3.1471   -2.0490    0.0000 F   0  0  0  0  0  0  0  0  0  0  0  0
    4.6471    0.5490    0.0000 F   0  0  0  0  0  0  0  0  0  0  0  0
    5.1962   -1.5000    0.0000 C   0  0  0  0  0  0  0  0  0  0  0  0
    5.9462   -0.2010    0.0000 F   0  0  0  0  0  0  0  0  0  0  0  0
    4.4462   -2.7990    0.0000 F   0  0  0  0  0  0  0  0  0  0  0  0
    6.4952   -2.2500    0.0000 C   0  0  0  0  0  0  0  0  0  0  0  0
    5.7452   -3.5490    0.0000 F   0  0  0  0  0  0  0  0  0  0  0  0
    7.2452   -0.9510    0.0000 F   0  0  0  0  0  0  0  0  0  0  0  0
    7.7942   -3.0000    0.0000 C   0  0  0  0  0  0  0  0  0  0  0  0
    8.5442   -1.7010    0.0000 F   0  0  0  0  0  0  0  0  0  0  0  0
    7.0442   -4.2990    0.0000 F   0  0  0  0  0  0  0  0  0  0  0  0
    9.0933   -3.7500    0.0000 C   0  0  0  0  0  0  0  0  0  0  0  0
    8.3433   -5.0490    0.0000 F   0  0  0  0  0  0  0  0  0  0  0  0
    9.8433   -2.4510    0.0000 F   0  0  0  0  0  0  0  0  0  0  0  0
   10.3923   -4.5000    0.0000 C   0  0  0  0  0  0  0  0  0  0  0  0
   11.6913   -5.2500    0.0000 F   0  0  0  0  0  0  0  0  0  0  0  0
   11.1423   -3.2010    0.0000 F   0  0  0  0  0  0  0  0  0  0  0  0
    9.6423   -5.7990    0.0000 F   0  0  0  0  0  0  0  0  0  0  0  0
  1  2  2  0
  2  3  1  0
  2  4  1  0
  4  5  1  0
  4  6  1  0
  6  7  1  0
  6  8  1  0
  6  9  1  0
  9 10  1  0
  9 11  1  0
  9 12  1  0
 12 13  1  0
 12 14  1  0
 12 15  1  0
 15 16  1  0
 15 17  1  0
 15 18  1  0
 18 19  1  0
 18 20  1  0
 18 21  1  0
 21 22  1  0
 21 23  1  0
 21 24  1  0
 24 25  1  0
 24 26  1  0
 24 27  1  0
M  END
$$$$

     RDKit          2D

 24 23  0  0  0  0  0  0  0  0999 V2000
   -2.2500    9.0933    0.0000 O   0  0  0  0  0  0  0  0  0  0  0  0
   -1.5000    7.7942    0.0000 C   0  0  0  0  0  0  0  0  0  0  0  0
    0.0000    7.7942    0.0000 O   0  0  0  0  0  0  0  0  0  0  0  0
   -2.2500    6.4952    0.0000 C   0  0  0  0  0  0  0  0  0  0  0  0
   -0.9510    5.7452    0.0000 F   0  0  0  0  0  0  0  0  0  0  0  0
   -3.5490    7.2452    0.0000 F   0  0  0  0  0  0  0  0  0  0  0  0
   -3.0000    5.1962    0.0000 O   0  0  0  0  0  0  0  0  0  0  0  0
   -2.2500    3.8971    0.0000 C   0  0  0  0  0  0  0  0  0  0  0  0
   -3.5490    3.1471    0.0000 F   0  0  0  0  0  0  0  0  0  0  0  0
   -0.9510    4.6471    0.0000 F   0  0  0  0  0  0  0  0  0  0  0  0
   -1.5000    2.5981    0.0000 C   0  0  0  0  0  0  0  0  0  0  0  0
   -0.2010    3.3481    0.0000 F   0  0  0  0  0  0  0  0  0  0  0  0
   -2.7990    1.8481    0.0000 F   0  0  0  0  0  0  0  0  0  0  0  0
   -0.7500    1.2990    0.0000 C   0  0  0  0  0  0  0  0  0  0  0  0
   -2.0490    0.5490    0.0000 F   0  0  0  0  0  0  0  0  0  0  0  0
    0.5490    2.0490    0.0000 F   0  0  0  0  0  0  0  0  0  0  0  0
    0.0000    0.0000    0.0000 C   0  0  0  0  0  0  0  0  0  0  0  0
   -0.7500   -1.2990    0.0000 F   0  0  0  0  0  0  0  0  0  0  0  0
    1.5000    0.0000    0.0000 C   0  0  0  0  0  0  0  0  0  0  0  0
    2.2500    1.2990    0.0000 F   0  0  0  0  0  0  0  0  0  0  0  0
    2.2500   -1.2990    0.0000 C   0  0  0  0  0  0  0  0  0  0  0  0
    3.0000   -2.5981    0.0000 F   0  0  0  0  0  0  0  0  0  0  0  0
    3.5490   -0.5490    0.0000 F   0  0  0  0  0  0  0  0  0  0  0  0
    0.9510   -2.0490    0.0000 F   0  0  0  0  0  0  0  0  0  0  0  0
  1  2  2  0
  2  3  1  0
  2  4  1  0
  4  5  1  0
  4  6  1  0
  4  7  1  0
  7  8  1  0
  8  9  1  0
  8 10  1  0
  8 11  1  0
 11 12  1  0
 11 13  1  0
 11 14  1  0
 14 15  1  0
 14 16  1  0
 14 17  1  0
 17 18  1  0
 17 19  2  0
 19 20  1  0
 19 21  1  0
 21 22  1  0
 21 23  1  0
 21 24  1  0
M  END
$$$$

     RDKit          2D

 36 35  0  0  0  0  0  0  0  0999 V2000
   -0.0000   -1.5000    0.0000 O   0  0  0  0  0  0  0  0  0  0  0  0
    0.0000    0.0000    0.0000 C   0  0  0  0  0  0  0  0  0  0  0  0
   -1.2990    0.7500    0.0000 O   0  0  0  0  0  0  0  0  0  0  0  0
    1.2990    0.7500    0.0000 C   0  0  0  0  0  0  0  0  0  0  0  0
    1.2990    2.2500    0.0000 F   0  0  0  0  0  0  0  0  0  0  0  0
    2.5981   -0.0000    0.0000 C   0  0  0  0  0  0  0  0  0  0  0  0
    3.3481    1.2990    0.0000 F   0  0  0  0  0  0  0  0  0  0  0  0
    1.8481   -1.2990    0.0000 F   0  0  0  0  0  0  0  0  0  0  0  0
    3.8971   -0.7500    0.0000 C   0  0  0  0  0  0  0  0  0  0  0  0
    3.1471   -2.0490    0.0000 F   0  0  0  0  0  0  0  0  0  0  0  0
    4.6471    0.5490    0.0000 F   0  0  0  0  0  0  0  0  0  0  0  0
    5.1962   -1.5000    0.0000 C   0  0  0  0  0  0  0  0  0  0  0  0
    5.9462   -0.2010    0.0000 F   0  0  0  0  0  0  0  0  0  0  0  0
    4.4462   -2.7990    0.0000 F   0  0  0  0  0  0  0  0  0  0  0  0
    6.4952   -2.2500    0.0000 C   0  0  0  0  0  0  0  0  0  0  0  0
    5.7452   -3.5490    0.0000 F   0  0  0  0  0  0  0  0  0  0  0  0
    7.2452   -0.9510    0.0000 F   0  0  0  0  0  0  0  0  0  0  0  0
    7.7942   -3.0000    0.0000 C   0  0  0  0  0  0  0  0  0  0  0  0
    8.5442   -1.7010    0.0000 F   0  0  0  0  0  0  0  0  0  0  0  0
    7.0442   -4.2990    0.0000 F   0  0  0  0  0  0  0  0  0  0  0  0
    9.0933   -3.7500    0.0000 C   0  0  0  0  0  0  0  0  0  0  0  0
    8.3433   -5.0490    0.0000 F   0  0  0  0  0  0  0  0  0  0  0  0
    9.8433   -2.4510    0.0000 F   0  0  0  0  0  0  0  0  0  0  0  0
   10.3923   -4.5000    0.0000 C   0  0  0  0  0  0  0  0  0  0  0  0
   11.1423   -3.2010    0.0000 F   0  0  0  0  0  0  0  0  0  0  0  0
    9.6423   -5.7990    0.0000 F   0  0  0  0  0  0  0  0  0  0  0  0
   11.6913   -5.2500    0.0000 C   0  0  0  0  0  0  0  0  0  0  0  0
   10.9413   -6.5490    0.0000 F   0  0  0  0  0  0  0  0  0  0  0  0
   12.4413   -3.9510    0.0000 F   0  0  0  0  0  0  0  0  0  0  0  0
   12.9904   -6.0000    0.0000 C   0  0  0  0  0  0  0  0  0  0  0  0
   13.7404   -4.7010    0.0000 F   0  0  0  0  0  0  0  0  0  0  0  0
   12.2404   -7.2990    0.0000 F   0  0  0  0  0  0  0  0  0  0  0  0
   14.2894   -6.7500    0.0000 C   0  0  0  0  0  0  0  0  0  0  0  0
   15.5885   -7.5000    0.0000 F   0  0  0  0  0  0  0  0  0  0  0  0
   13.5394   -8.0490    0.0000 F   0  0  0  0  0  0  0  0  0  0  0  0
   15.0394   -5.4510    0.0000 F   0  0  0  0  0  0  0  0  0  0  0  0
  1  2  2  0
  2  3  1  0
  2  4  1  0
  4  5  1  0
  4  6  1  0
  6  7  1  0
  6  8  1  0
  6  9  1  0
  9 10  1  0
  9 11  1  0
  9 12  1  0
 12 13  1  0
 12 14  1  0
 12 15  1  0
 15 16  1  0
 15 17  1  0
 15 18  1  0
 18 19  1  0
 18 20  1  0
 18 21  1  0
 21 22  1  0
 21 23  1  0
 21 24  1  0
 24 25  1  0
 24 26  1  0
 24 27  1  0
 27 28  1  0
 27 29  1  0
 27 30  1  0
 30 31  1  0
 30 32  1  0
 30 33  1  0
 33 34  1  0
 33 35  1  0
 33 36  1  0
M  END
$$$$

     RDKit          2D

 52 51  0  0  0  0  0  0  0  0999 V2000
   10.2990   -5.9462    0.0000 C   0  0  0  0  0  0  0  0  0  0  0  0
   10.2990   -4.4462    0.0000 N   0  0  0  0  0  0  0  0  0  0  0  0
   10.2990   -2.9462    0.0000 C   0  0  0  0  0  0  0  0  0  0  0  0
    8.7990   -4.4462    0.0000 C   0  0  0  0  0  0  0  0  0  0  0  0
    8.0490   -3.1471    0.0000 C   0  0  0  0  0  0  0  0  0  0  0  0
    6.5490   -3.1471    0.0000 C   0  0  0  0  0  0  0  0  0  0  0  0
    5.7990   -1.8481    0.0000 N   0  0  0  0  0  0  0  0  0  0  0  0
    4.2990   -1.8481    0.0000 C   0  0  0  0  0  0  0  0  0  0  0  0
    3.5490   -0.5490    0.0000 C   0  0  0  0  0  0  0  0  0  0  0  0
    4.1351    0.8317    0.0000 O   0  0  0  0  0  0  0  0  0  0  0  0
    2.0490   -0.5490    0.0000 O   0  0  0  0  0  0  0  0  0  0  0  0
    6.5490   -0.5490    0.0000 S   0  0  0  0  0  0  0  0  0  0  0  0
    7.8481   -1.2990    0.0000 O   0  0  0  0  0  0  0  0  0  0  0  0
    5.8152   -0.2376    0.0000 O   0  0  0  0  0  0  0  0  0  0  0  0
    7.2990    0.7500    0.0000 C   0  0  0  0  0  0  0  0  0  0  0  0
    8.5981    0.0000    0.0000 F   0  0  0  0  0  0  0  0  0  0  0  0
    8.0490    2.0490    0.0000 F   0  0  0  0  0  0  0  0  0  0  0  0
    6.0000    1.5000    0.0000 C   0  0  0  0  0  0  0  0  0  0  0  0
    5.4669    0.7926    0.0000 F   0  0  0  0  0  0  0  0  0  0  0  0
    6.7500    2.7990    0.0000 F   0  0  0  0  0  0  0  0  0  0  0  0
    4.7010    2.2500    0.0000 C   0  0  0  0  0  0  0  0  0  0  0  0
    3.7982    1.0521    0.0000 F   0  0  0  0  0  0  0  0  0  0  0  0
    5.4510    3.5490    0.0000 F   0  0  0  0  0  0  0  0  0  0  0  0
    3.4019    3.0000    0.0000 C   0  0  0  0  0  0  0  0  0  0  0  0
    2.6519    1.7010    0.0000 F   0  0  0  0  0  0  0  0  0  0  0  0
    4.1519    4.2990    0.0000 F   0  0  0  0  0  0  0  0  0  0  0  0
    2.1029    3.7500    0.0000 C   0  0  0  0  0  0  0  0  0  0  0  0
    1.3529    2.4510    0.0000 F   0  0  0  0  0  0  0  0  0  0  0  0
    2.8529    5.0490    0.0000 F   0  0  0  0  0  0  0  0  0  0  0  0
    0.8038    4.5000    0.0000 C   0  0  0  0  0  0  0  0  0  0  0  0
    0.0538    3.2010    0.0000 F   0  0  0  0  0  0  0  0  0  0  0  0
    1.5538    5.7990    0.0000 F   0  0  0  0  0  0  0  0  0  0  0  0
   -0.4952    5.2500    0.0000 C   0  0  0  0  0  0  0  0  0  0  0  0
   -1.2452    3.9510    0.0000 F   0  0  0  0  0  0  0  0  0  0  0  0
    0.2548    6.5490    0.0000 F   0  0  0  0  0  0  0  0  0  0  0  0
   -1.7942    6.0000    0.0000 C   0  0  0  0  0  0  0  0  0  0  0  0
   -1.0442    7.2990    0.0000 F   0  0  0  0  0  0  0  0  0  0  0  0
   -2.5442    4.7010    0.0000 F   0  0  0  0  0  0  0  0  0  0  0  0
   -3.0933    6.7500    0.0000 C   0  0  0  0  0  0  0  0  0  0  0  0
   -3.8433    5.4510    0.0000 F   0  0  0  0  0  0  0  0  0  0  0  0
   -2.3433    8.0490    0.0000 F   0  0  0  0  0  0  0  0  0  0  0  0
   -4.3923    7.5000    0.0000 C   0  0  0  0  0  0  0  0  0  0  0  0
   -3.6423    8.7990    0.0000 F   0  0  0  0  0  0  0  0  0  0  0  0
   -5.1423    6.2010    0.0000 F   0  0  0  0  0  0  0  0  0  0  0  0
   -5.6913    8.2500    0.0000 C   0  0  0  0  0  0  0  0  0  0  0  0
   -6.9904    9.0000    0.0000 F   0  0  0  0  0  0  0  0  0  0  0  0
   -6.4413    6.9510    0.0000 F   0  0  0  0  0  0  0  0  0  0  0  0
   -4.9413    9.5490    0.0000 F   0  0  0  0  0  0  0  0  0  0  0  0
   11.7990   -4.4462    0.0000 C   0  0  0  0  0  0  0  0  0  0  0  0
   12.5490   -3.1471    0.0000 C   0  0  0  0  0  0  0  0  0  0  0  0
   11.7990   -1.8481    0.0000 O   0  0  0  0  0  0  0  0  0  0  0  0
   14.0490   -3.1471    0.0000 O   0  0  0  0  0  0  0  0  0  0  0  0
  1  2  1  0
  2  3  1  0
  2  4  1  0
  4  5  1  0
  5  6  1  0
  6  7  1  0
  7  8  1  0
  8  9  1  0
  9 10  2  0
  9 11  1  0
  7 12  1  0
 12 13  2  0
 12 14  2  0
 12 15  1  0
 15 16  1  0
 15 17  1  0
 15 18  1  0
 18 19  1  0
 18 20  1  0
 18 21  1  0
 21 22  1  0
 21 23  1  0
 21 24  1  0
 24 25  1  0
 24 26  1  0
 24 27  1  0
 27 28  1  0
 27 29  1  0
 27 30  1  0
 30 31  1  0
 30 32  1  0
 30 33  1  0
 33 34  1  0
 33 35  1  0
 33 36  1  0
 36 37  1  0
 36 38  1  0
 36 39  1  0
 39 40  1  0
 39 41  1  0
 39 42  1  0
 42 43  1  0
 42 44  1  0
 42 45  1  0
 45 46  1  0
 45 47  1  0
 45 48  1  0
  2 49  1  0
 49 50  1  0
 50 51  2  0
 50 52  1  0
M  CHG  2   2   1  52  -1
M  END
$$$$

     RDKit          2D

 23 22  0  0  0  0  0  0  0  0999 V2000
    0.0000    0.0000    0.0000 C   0  0  0  0  0  0  0  0  0  0  0  0
    1.2990    0.7500    0.0000 N   0  0  0  0  0  0  0  0  0  0  0  0
    2.5981    1.5000    0.0000 C   0  0  0  0  0  0  0  0  0  0  0  0
    2.0490   -0.5490    0.0000 C   0  0  0  0  0  0  0  0  0  0  0  0
    0.5490    2.0490    0.0000 C   0  0  0  0  0  0  0  0  0  0  0  0
    1.2990    3.3481    0.0000 C   0  0  0  0  0  0  0  0  0  0  0  0
    0.5490    4.6471    0.0000 C   0  0  0  0  0  0  0  0  0  0  0  0
    1.2990    5.9462    0.0000 N   0  0  0  0  0  0  0  0  0  0  0  0
    0.5490    7.2452    0.0000 C   0  0  0  0  0  0  0  0  0  0  0  0
    1.2990    8.5442    0.0000 C   0  0  0  0  0  0  0  0  0  0  0  0
    0.5490    9.8433    0.0000 C   0  0  0  0  0  0  0  0  0  0  0  0
   -0.9510    9.8433    0.0000 O   0  0  0  0  0  0  0  0  0  0  0  0
    1.2990   11.1423    0.0000 O   0  0  0  0  0  0  0  0  0  0  0  0
    2.7990    5.9462    0.0000 S   0  0  0  0  0  0  0  0  0  0  0  0
    2.7990    4.4462    0.0000 O   0  0  0  0  0  0  0  0  0  0  0  0
    2.7019    6.7374    0.0000 O   0  0  0  0  0  0  0  0  0  0  0  0
    4.2990    5.9462    0.0000 C   0  0  0  0  0  0  0  0  0  0  0  0
    4.2990    4.4462    0.0000 F   0  0  0  0  0  0  0  0  0  0  0  0
    5.7990    5.9462    0.0000 F   0  0  0  0  0  0  0  0  0  0  0  0
    4.2990    7.4462    0.0000 C   0  0  0  0  0  0  0  0  0  0  0  0
    4.2990    8.9462    0.0000 F   0  0  0  0  0  0  0  0  0  0  0  0
    5.7990    7.4462    0.0000 F   0  0  0  0  0  0  0  0  0  0  0  0
    3.4199    7.5541    0.0000 F   0  0  0  0  0  0  0  0  0  0  0  0
  1  2  1  0
  2  3  1  0
  2  4  1  0
  2  5  1  0
  5  6  1  0
  6  7  1  0
  7  8  1  0
  8  9  1  0
  9 10  1  0
 10 11  1  0
 11 12  2  0
 11 13  1  0
  8 14  1  0
 14 15  2  0
 14 16  2  0
 14 17  1  0
 17 18  1  0
 17 19  1  0
 17 20  1  0
 20 21  1  0
 20 22  1  0
 20 23  1  0
M  CHG  2   2   1  13  -1
M  END
$$$$

     RDKit          2D

 50 49  0  0  0  0  0  0  0  0999 V2000
    8.5981   11.8923    0.0000 C   0  0  0  0  0  0  0  0  0  0  0  0
    7.2990   11.1423    0.0000 N   0  0  0  0  0  0  0  0  0  0  0  0
    6.0000   10.3923    0.0000 C   0  0  0  0  0  0  0  0  0  0  0  0
    6.5490   12.4413    0.0000 C   0  0  0  0  0  0  0  0  0  0  0  0
    8.0490    9.8433    0.0000 C   0  0  0  0  0  0  0  0  0  0  0  0
    7.2990    8.5442    0.0000 C   0  0  0  0  0  0  0  0  0  0  0  0
    8.0490    7.2452    0.0000 C   0  0  0  0  0  0  0  0  0  0  0  0
    7.2990    5.9462    0.0000 N   0  0  0  0  0  0  0  0  0  0  0  0
    8.0490    4.6471    0.0000 C   0  0  0  0  0  0  0  0  0  0  0  0
    7.2990    3.3481    0.0000 C   0  0  0  0  0  0  0  0  0  0  0  0
    8.0490    2.0490    0.0000 C   0  0  0  0  0  0  0  0  0  0  0  0
    9.5490    2.0490    0.0000 O   0  0  0  0  0  0  0  0  0  0  0  0
    7.2990    0.7500    0.0000 O   0  0  0  0  0  0  0  0  0  0  0  0
    5.7990    5.9462    0.0000 S   0  0  0  0  0  0  0  0  0  0  0  0
    5.7990    7.4462    0.0000 O   0  0  0  0  0  0  0  0  0  0  0  0
    5.8962    5.1549    0.0000 O   0  0  0  0  0  0  0  0  0  0  0  0
    4.2990    5.9462    0.0000 C   0  0  0  0  0  0  0  0  0  0  0  0
    4.2990    7.4462    0.0000 F   0  0  0  0  0  0  0  0  0  0  0  0
    2.7990    5.9462    0.0000 F   0  0  0  0  0  0  0  0  0  0  0  0
    4.2990    4.4462    0.0000 C   0  0  0  0  0  0  0  0  0  0  0  0
    2.7990    4.4462    0.0000 F   0  0  0  0  0  0  0  0  0  0  0  0
    5.1782    4.3382    0.0000 F   0  0  0  0  0  0  0  0  0  0  0  0
    4.2990    2.9462    0.0000 C   0  0  0  0  0  0  0  0  0  0  0  0
    2.7990    2.9462    0.0000 F   0  0  0  0  0  0  0  0  0  0  0  0
    5.7990    2.9462    0.0000 F   0  0  0  0  0  0  0  0  0  0  0  0
    4.2990    1.4462    0.0000 C   0  0  0  0  0  0  0  0  0  0  0  0
    2.7990    1.4462    0.0000 F   0  0  0  0  0  0  0  0  0  0  0  0
    5.7990    1.4462    0.0000 F   0  0  0  0  0  0  0  0  0  0  0  0
    4.2990   -0.0538    0.0000 C   0  0  0  0  0  0  0  0  0  0  0  0
    2.7990   -0.0538    0.0000 F   0  0  0  0  0  0  0  0  0  0  0  0
    5.7990   -0.0538    0.0000 F   0  0  0  0  0  0  0  0  0  0  0  0
    4.2990   -1.5538    0.0000 C   0  0  0  0  0  0  0  0  0  0  0  0
    5.7990   -1.5538    0.0000 F   0  0  0  0  0  0  0  0  0  0  0  0
    2.7990   -1.5538    0.0000 F   0  0  0  0  0  0  0  0  0  0  0  0
    4.2990   -3.0538    0.0000 C   0  0  0  0  0  0  0  0  0  0  0  0
    5.7990   -3.0538    0.0000 F   0  0  0  0  0  0  0  0  0  0  0  0
    2.7990   -3.0538    0.0000 F   0  0  0  0  0  0  0  0  0  0  0  0
    4.2990   -4.5538    0.0000 C   0  0  0  0  0  0  0  0  0  0  0  0
    2.7990   -4.5538    0.0000 F   0  0  0  0  0  0  0  0  0  0  0  0
    5.7990   -4.5538    0.0000 F   0  0  0  0  0  0  0  0  0  0  0  0
    4.2990   -6.0538    0.0000 C   0  0  0  0  0  0  0  0  0  0  0  0
    5.7990   -6.0538    0.0000 F   0  0  0  0  0  0  0  0  0  0  0  0
    2.7990   -6.0538    0.0000 F   0  0  0  0  0  0  0  0  0  0  0  0
    4.2990   -7.5538    0.0000 C   0  0  0  0  0  0  0  0  0  0  0  0
    2.7990   -7.5538    0.0000 F   0  0  0  0  0  0  0  0  0  0  0  0
    5.7990   -7.5538    0.0000 F   0  0  0  0  0  0  0  0  0  0  0  0
    4.2990   -9.0538    0.0000 C   0  0  0  0  0  0  0  0  0  0  0  0
    4.2990  -10.5538    0.0000 F   0  0  0  0  0  0  0  0  0  0  0  0
    5.7990   -9.0538    0.0000 F   0  0  0  0  0  0  0  0  0  0  0  0
    2.7990   -9.0538    0.0000 F   0  0  0  0  0  0  0  0  0  0  0  0
  1  2  1  0
  2  3  1  0
  2  4  1  0
  2  5  1  0
  5  6  1  0
  6  7  1  0
  7  8  1  0
  8  9  1  0
  9 10  1  0
 10 11  1  0
 11 12  2  0
 11 13  1  0
  8 14  1  0
 14 15  2  0
 14 16  2  0
 14 17  1  0
 17 18  1  0
 17 19  1  0
 17 20  1  0
 20 21  1  0
 20 22  1  0
 20 23  1  0
 23 24  1  0
 23 25  1  0
 23 26  1  0
 26 27  1  0
 26 28  1  0
 26 29  1  0
 29 30  1  0
 29 31  1  0
 29 32  1  0
 32 33  1  0
 32 34  1  0
 32 35  1  0
 35 36  1  0
 35 37  1  0
 35 38  1  0
 38 39  1  0
 38 40  1  0
 38 41  1  0
 41 42  1  0
 41 43  1  0
 41 44  1  0
 44 45  1  0
 44 46  1  0
 44 47  1  0
 47 48  1  0
 47 49  1  0
 47 50  1  0
M  CHG  2   2   1  13  -1
M  END
$$$$

     RDKit          2D

 38 37  0  0  0  0  0  0  0  0999 V2000
    0.0000    0.0000    0.0000 C   0  0  0  0  0  0  0  0  0  0  0  0
    1.2990    0.7500    0.0000 N   0  0  0  0  0  0  0  0  0  0  0  0
    2.5981    1.5000    0.0000 C   0  0  0  0  0  0  0  0  0  0  0  0
    2.0490   -0.5490    0.0000 C   0  0  0  0  0  0  0  0  0  0  0  0
    3.5490   -0.5490    0.0000 C   0  0  0  0  0  0  0  0  0  0  0  0
    4.2990   -1.8481    0.0000 C   0  0  0  0  0  0  0  0  0  0  0  0
    5.7990   -1.8481    0.0000 N   0  0  0  0  0  0  0  0  0  0  0  0
    6.5490   -3.1471    0.0000 C   0  0  0  0  0  0  0  0  0  0  0  0
    8.0490   -3.1471    0.0000 C   0  0  0  0  0  0  0  0  0  0  0  0
    8.7990   -4.4462    0.0000 C   0  0  0  0  0  0  0  0  0  0  0  0
    8.0490   -5.7452    0.0000 O   0  0  0  0  0  0  0  0  0  0  0  0
   10.2990   -4.4462    0.0000 O   0  0  0  0  0  0  0  0  0  0  0  0
    6.5490   -0.5490    0.0000 S   0  0  0  0  0  0  0  0  0  0  0  0
    5.2500    0.2010    0.0000 O   0  0  0  0  0  0  0  0  0  0  0  0
    7.1857   -1.0288    0.0000 O   0  0  0  0  0  0  0  0  0  0  0  0
    7.2990    0.7500    0.0000 C   0  0  0  0  0  0  0  0  0  0  0  0
    6.0000    1.5000    0.0000 F   0  0  0  0  0  0  0  0  0  0  0  0
    8.0490    2.0490    0.0000 F   0  0  0  0  0  0  0  0  0  0  0  0
    8.5981    0.0000    0.0000 C   0  0  0  0  0  0  0  0  0  0  0  0
    9.3481    1.2990    0.0000 F   0  0  0  0  0  0  0  0  0  0  0  0
    8.2520   -0.8153    0.0000 F   0  0  0  0  0  0  0  0  0  0  0  0
    9.8971   -0.7500    0.0000 C   0  0  0  0  0  0  0  0  0  0  0  0
   10.6471    0.5490    0.0000 F   0  0  0  0  0  0  0  0  0  0  0  0
    9.1471   -2.0490    0.0000 F   0  0  0  0  0  0  0  0  0  0  0  0
   11.1962   -1.5000    0.0000 C   0  0  0  0  0  0  0  0  0  0  0  0
   10.4462   -2.7990    0.0000 F   0  0  0  0  0  0  0  0  0  0  0  0
   11.9462   -0.2010    0.0000 F   0  0  0  0  0  0  0  0  0  0  0  0
   12.4952   -2.2500    0.0000 C   0  0  0  0  0  0  0  0  0  0  0  0
   11.7452   -3.5490    0.0000 F   0  0  0  0  0  0  0  0  0  0  0  0
   13.2452   -0.9510    0.0000 F   0  0  0  0  0  0  0  0  0  0  0  0
   13.7942   -3.0000    0.0000 C   0  0  0  0  0  0  0  0  0  0  0  0
   15.0933   -3.7500    0.0000 F   0  0  0  0  0  0  0  0  0  0  0  0
   13.0442   -4.2990    0.0000 F   0  0  0  0  0  0  0  0  0  0  0  0
   14.5442   -1.7010    0.0000 F   0  0  0  0  0  0  0  0  0  0  0  0
    0.5490    2.0490    0.0000 C   0  0  0  0  0  0  0  0  0  0  0  0
    1.2990    3.3481    0.0000 C   0  0  0  0  0  0  0  0  0  0  0  0
    2.7990    3.3481    0.0000 O   0  0  0  0  0  0  0  0  0  0  0  0
    0.5490    4.6471    0.0000 O   0  0  0  0  0  0  0  0  0  0  0  0
  1  2  1  0
  2  3  1  0
  2  4  1  0
  4  5  1  0
  5  6  1  0
  6  7  1  0
  7  8  1  0
  8  9  1  0
  9 10  1  0
 10 11  2  0
 10 12  1  0
  7 13  1  0
 13 14  2  0
 13 15  2  0
 13 16  1  0
 16 17  1  0
 16 18  1  0
 16 19  1  0
 19 20  1  0
 19 21  1  0
 19 22  1  0
 22 23  1  0
 22 24  1  0
 22 25  1  0
 25 26  1  0
 25 27  1  0
 25 28  1  0
 28 29  1  0
 28 30  1  0
 28 31  1  0
 31 32  1  0
 31 33  1  0
 31 34  1  0
  2 35  1  0
 35 36  1  0
 36 37  2  0
 36 38  1  0
M  CHG  2   2   1  38  -1
M  END
$$$$

     RDKit          2D

 15 14  0  0  0  0  0  0  0  0999 V2000
   -1.4630   -0.8317    0.0000 O   0  0  0  0  0  0  0  0  0  0  0  0
   -2.0490    0.5490    0.0000 S   0  0  0  0  0  0  0  0  0  0  0  0
   -2.7990    1.8481    0.0000 O   0  0  0  0  0  0  0  0  0  0  0  0
   -3.3481   -0.2010    0.0000 O   0  0  0  0  0  0  0  0  0  0  0  0
   -0.7500    1.2990    0.0000 C   0  0  0  0  0  0  0  0  0  0  0  0
   -1.5000    2.5981    0.0000 F   0  0  0  0  0  0  0  0  0  0  0  0
    0.5490    2.0490    0.0000 F   0  0  0  0  0  0  0  0  0  0  0  0
    0.0000    0.0000    0.0000 C   0  0  0  0  0  0  0  0  0  0  0  0
   -0.5861   -1.3808    0.0000 F   0  0  0  0  0  0  0  0  0  0  0  0
    1.5000    0.0000    0.0000 C   0  0  0  0  0  0  0  0  0  0  0  0
    2.2500    1.2990    0.0000 F   0  0  0  0  0  0  0  0  0  0  0  0
    2.2500   -1.2990    0.0000 C   0  0  0  0  0  0  0  0  0  0  0  0
    3.0000   -2.5981    0.0000 F   0  0  0  0  0  0  0  0  0  0  0  0
    3.5490   -0.5490    0.0000 F   0  0  0  0  0  0  0  0  0  0  0  0
    0.9510   -2.0490    0.0000 F   0  0  0  0  0  0  0  0  0  0  0  0
  1  2  2  0
  2  3  2  0
  2  4  1  0
  2  5  1  0
  5  6  1  0
  5  7  1  0
  5  8  1  0
  8  9  1  0
  8 10  2  0
 10 11  1  0
 10 12  1  0
 12 13  1  0
 12 14  1  0
 12 15  1  0
M  END
$$$$

     RDKit          2D

 27 26  0  0  0  0  0  0  0  0999 V2000
    0.0000    0.0000    0.0000 C   0  0  0  0  0  0  0  0  0  0  0  0
    1.2990    0.7500    0.0000 N   0  0  0  0  0  0  0  0  0  0  0  0
    2.5981    1.5000    0.0000 C   0  0  0  0  0  0  0  0  0  0  0  0
    2.0490   -0.5490    0.0000 C   0  0  0  0  0  0  0  0  0  0  0  0
    0.5490    2.0490    0.0000 C   0  0  0  0  0  0  0  0  0  0  0  0
    1.2990    3.3481    0.0000 C   0  0  0  0  0  0  0  0  0  0  0  0
    0.5490    4.6471    0.0000 N   0  0  0  0  0  0  0  0  0  0  0  0
    1.2990    5.9462    0.0000 C   0  0  0  0  0  0  0  0  0  0  0  0
    0.5490    7.2452    0.0000 C   0  0  0  0  0  0  0  0  0  0  0  0
    1.8481    7.9952    0.0000 F   0  0  0  0  0  0  0  0  0  0  0  0
   -0.7500    6.4952    0.0000 F   0  0  0  0  0  0  0  0  0  0  0  0
   -0.2010    8.5442    0.0000 C   0  0  0  0  0  0  0  0  0  0  0  0
   -1.5000    7.7942    0.0000 F   0  0  0  0  0  0  0  0  0  0  0  0
    1.0981    9.2942    0.0000 F   0  0  0  0  0  0  0  0  0  0  0  0
   -0.9510    9.8433    0.0000 C   0  0  0  0  0  0  0  0  0  0  0  0
    0.3481   10.5933    0.0000 F   0  0  0  0  0  0  0  0  0  0  0  0
   -2.2500    9.0933    0.0000 F   0  0  0  0  0  0  0  0  0  0  0  0
   -1.7010   11.1423    0.0000 C   0  0  0  0  0  0  0  0  0  0  0  0
   -3.0000   10.3923    0.0000 F   0  0  0  0  0  0  0  0  0  0  0  0
   -0.4019   11.8923    0.0000 F   0  0  0  0  0  0  0  0  0  0  0  0
   -2.4510   12.4413    0.0000 C   0  0  0  0  0  0  0  0  0  0  0  0
   -1.1519   13.1913    0.0000 F   0  0  0  0  0  0  0  0  0  0  0  0
   -3.7500   11.6913    0.0000 F   0  0  0  0  0  0  0  0  0  0  0  0
   -3.2010   13.7404    0.0000 C   0  0  0  0  0  0  0  0  0  0  0  0
   -3.9510   15.0394    0.0000 F   0  0  0  0  0  0  0  0  0  0  0  0
   -4.5000   12.9904    0.0000 F   0  0  0  0  0  0  0  0  0  0  0  0
   -1.9019   14.4904    0.0000 F   0  0  0  0  0  0  0  0  0  0  0  0
  1  2  1  0
  2  3  1  0
  2  4  1  0
  2  5  1  0
  5  6  1  0
  6  7  1  0
  7  8  1  0
  8  9  1  0
  9 10  1  0
  9 11  1  0
  9 12  1  0
 12 13  1  0
 12 14  1  0
 12 15  1  0
 15 16  1  0
 15 17  1  0
 15 18  1  0
 18 19  1  0
 18 20  1  0
 18 21  1  0
 21 22  1  0
 21 23  1  0
 21 24  1  0
 24 25  1  0
 24 26  1  0
 24 27  1  0
M  CHG  1   2   1
M  END
$$$$

     RDKit          2D

 51 50  0  0  0  0  0  0  0  0999 V2000
    0.0000    0.0000    0.0000 C   0  0  0  0  0  0  0  0  0  0  0  0
    1.2990    0.7500    0.0000 N   0  0  0  0  0  0  0  0  0  0  0  0
    2.5981    1.5000    0.0000 C   0  0  0  0  0  0  0  0  0  0  0  0
    2.0490   -0.5490    0.0000 C   0  0  0  0  0  0  0  0  0  0  0  0
    0.5490    2.0490    0.0000 C   0  0  0  0  0  0  0  0  0  0  0  0
    1.2990    3.3481    0.0000 C   0  0  0  0  0  0  0  0  0  0  0  0
    0.5490    4.6471    0.0000 N   0  0  0  0  0  0  0  0  0  0  0  0
    1.2990    5.9462    0.0000 C   0  0  0  0  0  0  0  0  0  0  0  0
    0.5490    7.2452    0.0000 C   0  0  0  0  0  0  0  0  0  0  0  0
    1.8481    7.9952    0.0000 F   0  0  0  0  0  0  0  0  0  0  0  0
   -0.7500    6.4952    0.0000 F   0  0  0  0  0  0  0  0  0  0  0  0
   -0.2010    8.5442    0.0000 C   0  0  0  0  0  0  0  0  0  0  0  0
   -1.5000    7.7942    0.0000 F   0  0  0  0  0  0  0  0  0  0  0  0
    1.0981    9.2942    0.0000 F   0  0  0  0  0  0  0  0  0  0  0  0
   -0.9510    9.8433    0.0000 C   0  0  0  0  0  0  0  0  0  0  0  0
    0.3481   10.5933    0.0000 F   0  0  0  0  0  0  0  0  0  0  0  0
   -2.2500    9.0933    0.0000 F   0  0  0  0  0  0  0  0  0  0  0  0
   -1.7010   11.1423    0.0000 C   0  0  0  0  0  0  0  0  0  0  0  0
   -3.0000   10.3923    0.0000 F   0  0  0  0  0  0  0  0  0  0  0  0
   -0.4019   11.8923    0.0000 F   0  0  0  0  0  0  0  0  0  0  0  0
   -2.4510   12.4413    0.0000 C   0  0  0  0  0  0  0  0  0  0  0  0
   -1.1519   13.1913    0.0000 F   0  0  0  0  0  0  0  0  0  0  0  0
   -3.7500   11.6913    0.0000 F   0  0  0  0  0  0  0  0  0  0  0  0
   -3.2010   13.7404    0.0000 C   0  0  0  0  0  0  0  0  0  0  0  0
   -4.5000   12.9904    0.0000 F   0  0  0  0  0  0  0  0  0  0  0  0
   -1.9019   14.4904    0.0000 F   0  0  0  0  0  0  0  0  0  0  0  0
   -3.9510   15.0394    0.0000 C   0  0  0  0  0  0  0  0  0  0  0  0
   -2.6519   15.7894    0.0000 F   0  0  0  0  0  0  0  0  0  0  0  0
   -5.2500   14.2894    0.0000 F   0  0  0  0  0  0  0  0  0  0  0  0
   -4.7010   16.3385    0.0000 C   0  0  0  0  0  0  0  0  0  0  0  0
   -6.0000   15.5885    0.0000 F   0  0  0  0  0  0  0  0  0  0  0  0
   -3.4019   17.0885    0.0000 F   0  0  0  0  0  0  0  0  0  0  0  0
   -5.4510   17.6375    0.0000 C   0  0  0  0  0  0  0  0  0  0  0  0
   -4.1519   18.3875    0.0000 F   0  0  0  0  0  0  0  0  0  0  0  0
   -6.7500   16.8875    0.0000 F   0  0  0  0  0  0  0  0  0  0  0  0
   -6.2010   18.9365    0.0000 C   0  0  0  0  0  0  0  0  0  0  0  0
   -7.5000   18.1865    0.0000 F   0  0  0  0  0  0  0  0  0  0  0  0
   -4.9019   19.6865    0.0000 F   0  0  0  0  0  0  0  0  0  0  0  0
   -6.9510   20.2356    0.0000 C   0  0  0  0  0  0  0  0  0  0  0  0
   -5.6519   20.9856    0.0000 F   0  0  0  0  0  0  0  0  0  0  0  0
   -8.2500   19.4856    0.0000 F   0  0  0  0  0  0  0  0  0  0  0  0
   -7.7010   21.5346    0.0000 C   0  0  0  0  0  0  0  0  0  0  0  0
   -9.0000   20.7846    0.0000 F   0  0  0  0  0  0  0  0  0  0  0  0
   -6.4019   22.2846    0.0000 F   0  0  0  0  0  0  0  0  0  0  0  0
   -8.4510   22.8336    0.0000 C   0  0  0  0  0  0  0  0  0  0  0  0
   -7.1519   23.5836    0.0000 F   0  0  0  0  0  0  0  0  0  0  0  0
   -9.7500   22.0836    0.0000 F   0  0  0  0  0  0  0  0  0  0  0  0
   -9.2010   24.1327    0.0000 C   0  0  0  0  0  0  0  0  0  0  0  0
   -9.9510   25.4317    0.0000 F   0  0  0  0  0  0  0  0  0  0  0  0
  -10.5000   23.3827    0.0000 F   0  0  0  0  0  0  0  0  0  0  0  0
   -7.9019   24.8827    0.0000 F   0  0  0  0  0  0  0  0  0  0  0  0
  1  2  1  0
  2  3  1  0
  2  4  1  0
  2  5  1  0
  5  6  1  0
  6  7  1  0
  7  8  1  0
  8  9  1  0
  9 10  1  0
  9 11  1  0
  9 12  1  0
 12 13  1  0
 12 14  1  0
 12 15  1  0
 15 16  1  0
 15 17  1  0
 15 18  1  0
 18 19  1  0
 18 20  1  0
 18 21  1  0
 21 22  1  0
 21 23  1  0
 21 24  1  0
 24 25  1  0
 24 26  1  0
 24 27  1  0
 27 28  1  0
 27 29  1  0
 27 30  1  0
 30 31  1  0
 30 32  1  0
 30 33  1  0
 33 34  1  0
 33 35  1  0
 33 36  1  0
 36 37  1  0
 36 38  1  0
 36 39  1  0
 39 40  1  0
 39 41  1  0
 39 42  1  0
 42 43  1  0
 42 44  1  0
 42 45  1  0
 45 46  1  0
 45 47  1  0
 45 48  1  0
 48 49  1  0
 48 50  1  0
 48 51  1  0
M  CHG  1   2   1
M  END
$$$$

     RDKit          2D

 37 36  0  0  0  0  0  0  0  0999 V2000
   -0.0000   -1.5000    0.0000 O   0  0  0  0  0  0  0  0  0  0  0  0
    0.0000    0.0000    0.0000 C   0  0  0  0  0  0  0  0  0  0  0  0
   -1.2990    0.7500    0.0000 O   0  0  0  0  0  0  0  0  0  0  0  0
    1.2990    0.7500    0.0000 C   0  0  0  0  0  0  0  0  0  0  0  0
    2.0490   -0.5490    0.0000 F   0  0  0  0  0  0  0  0  0  0  0  0
    0.5490    2.0490    0.0000 F   0  0  0  0  0  0  0  0  0  0  0  0
    2.5981    1.5000    0.0000 C   0  0  0  0  0  0  0  0  0  0  0  0
    1.8481    2.7990    0.0000 F   0  0  0  0  0  0  0  0  0  0  0  0
    3.3481    0.2010    0.0000 Cl  0  0  0  0  0  0  0  0  0  0  0  0
    3.8971    2.2500    0.0000 C   0  0  0  0  0  0  0  0  0  0  0  0
    3.1471    3.5490    0.0000 F   0  0  0  0  0  0  0  0  0  0  0  0
    4.6471    0.9510    0.0000 F   0  0  0  0  0  0  0  0  0  0  0  0
    5.1962    3.0000    0.0000 C   0  0  0  0  0  0  0  0  0  0  0  0
    5.9462    1.7010    0.0000 F   0  0  0  0  0  0  0  0  0  0  0  0
    4.4462    4.2990    0.0000 F   0  0  0  0  0  0  0  0  0  0  0  0
    6.4952    3.7500    0.0000 C   0  0  0  0  0  0  0  0  0  0  0  0
    5.7452    5.0490    0.0000 F   0  0  0  0  0  0  0  0  0  0  0  0
    7.2452    2.4510    0.0000 F   0  0  0  0  0  0  0  0  0  0  0  0
    7.7942    4.5000    0.0000 C   0  0  0  0  0  0  0  0  0  0  0  0
    8.5442    3.2010    0.0000 F   0  0  0  0  0  0  0  0  0  0  0  0
    7.0442    5.7990    0.0000 F   0  0  0  0  0  0  0  0  0  0  0  0
    9.0933    5.2500    0.0000 C   0  0  0  0  0  0  0  0  0  0  0  0
    9.8433    3.9510    0.0000 F   0  0  0  0  0  0  0  0  0  0  0  0
    8.3433    6.5490    0.0000 F   0  0  0  0  0  0  0  0  0  0  0  0
   10.3923    6.0000    0.0000 C   0  0  0  0  0  0  0  0  0  0  0  0
    9.6423    7.2990    0.0000 F   0  0  0  0  0  0  0  0  0  0  0  0
   11.1423    4.7010    0.0000 F   0  0  0  0  0  0  0  0  0  0  0  0
   11.6913    6.7500    0.0000 C   0  0  0  0  0  0  0  0  0  0  0  0
   12.4413    5.4510    0.0000 F   0  0  0  0  0  0  0  0  0  0  0  0
   10.9413    8.0490    0.0000 F   0  0  0  0  0  0  0  0  0  0  0  0
   12.9904    7.5000    0.0000 C   0  0  0  0  0  0  0  0  0  0  0  0
   12.2404    8.7990    0.0000 F   0  0  0  0  0  0  0  0  0  0  0  0
   13.7404    6.2010    0.0000 F   0  0  0  0  0  0  0  0  0  0  0  0
   14.2894    8.2500    0.0000 C   0  0  0  0  0  0  0  0  0  0  0  0
   15.5885    9.0000    0.0000 F   0  0  0  0  0  0  0  0  0  0  0  0
   15.0394    6.9510    0.0000 F   0  0  0  0  0  0  0  0  0  0  0  0
   13.5394    9.5490    0.0000 F   0  0  0  0  0  0  0  0  0  0  0  0
  1  2  2  0
  2  3  1  0
  2  4  1  0
  4  5  1  0
  4  6  1  0
  4  7  1  0
  7  8  1  0
  7  9  1  0
  7 10  1  0
 10 11  1  0
 10 12  1  0
 10 13  1  0
 13 14  1  0
 13 15  1  0
 13 16  1  0
 16 17  1  0
 16 18  1  0
 16 19  1  0
 19 20  1  0
 19 21  1  0
 19 22  1  0
 22 23  1  0
 22 24  1  0
 22 25  1  0
 25 26  1  0
 25 27  1  0
 25 28  1  0
 28 29  1  0
 28 30  1  0
 28 31  1  0
 31 32  1  0
 31 33  1  0
 31 34  1  0
 34 35  1  0
 34 36  1  0
 34 37  1  0
M  END
$$$$

     RDKit          2D

 38 37  0  0  0  0  0  0  0  0999 V2000
   -0.0000   -0.0000    0.0000 C   0  0  0  0  0  0  0  0  0  0  0  0
    1.2990    0.7500    0.0000 N   0  0  0  0  0  0  0  0  0  0  0  0
    2.5981   -0.0000    0.0000 C   0  0  0  0  0  0  0  0  0  0  0  0
    1.2990    2.2500    0.0000 C   0  0  0  0  0  0  0  0  0  0  0  0
    2.5981    3.0000    0.0000 C   0  0  0  0  0  0  0  0  0  0  0  0
    2.5981    4.5000    0.0000 C   0  0  0  0  0  0  0  0  0  0  0  0
    3.8971    5.2500    0.0000 C   0  0  0  0  0  0  0  0  0  0  0  0
    3.8971    6.7500    0.0000 O   0  0  0  0  0  0  0  0  0  0  0  0
    1.2990    5.2500    0.0000 N   0  0  0  0  0  0  0  0  0  0  0  0
    1.2990    6.7500    0.0000 C   0  0  0  0  0  0  0  0  0  0  0  0
   -0.0000    7.5000    0.0000 C   0  0  0  0  0  0  0  0  0  0  0  0
   -0.0000    9.0000    0.0000 C   0  0  0  0  0  0  0  0  0  0  0  0
   -1.2990    9.7500    0.0000 S   0  0  0  0  0  0  0  0  0  0  0  0
   -0.5490   11.0490    0.0000 O   0  0  0  0  0  0  0  0  0  0  0  0
   -1.8851    8.3692    0.0000 O   0  0  0  0  0  0  0  0  0  0  0  0
   -2.4970   10.6528    0.0000 O   0  0  0  0  0  0  0  0  0  0  0  0
   -0.0000    4.5000    0.0000 S   0  0  0  0  0  0  0  0  0  0  0  0
    0.7500    3.2010    0.0000 O   0  0  0  0  0  0  0  0  0  0  0  0
   -0.3115    5.2338    0.0000 O   0  0  0  0  0  0  0  0  0  0  0  0
   -1.2990    3.7500    0.0000 C   0  0  0  0  0  0  0  0  0  0  0  0
   -0.5490    2.4510    0.0000 F   0  0  0  0  0  0  0  0  0  0  0  0
   -2.5981    3.0000    0.0000 F   0  0  0  0  0  0  0  0  0  0  0  0
   -2.0490    5.0490    0.0000 C   0  0  0  0  0  0  0  0  0  0  0  0
   -1.3417    5.5821    0.0000 F   0  0  0  0  0  0  0  0  0  0  0  0
   -3.3481    4.2990    0.0000 F   0  0  0  0  0  0  0  0  0  0  0  0
   -2.7990    6.3481    0.0000 C   0  0  0  0  0  0  0  0  0  0  0  0
   -1.5000    7.0981    0.0000 F   0  0  0  0  0  0  0  0  0  0  0  0
   -4.0981    5.5981    0.0000 F   0  0  0  0  0  0  0  0  0  0  0  0
   -3.5490    7.6471    0.0000 C   0  0  0  0  0  0  0  0  0  0  0  0
   -4.8481    6.8971    0.0000 F   0  0  0  0  0  0  0  0  0  0  0  0
   -2.1683    8.2332    0.0000 F   0  0  0  0  0  0  0  0  0  0  0  0
   -4.2990    8.9462    0.0000 C   0  0  0  0  0  0  0  0  0  0  0  0
   -5.5981    8.1962    0.0000 F   0  0  0  0  0  0  0  0  0  0  0  0
   -3.1011    9.8489    0.0000 F   0  0  0  0  0  0  0  0  0  0  0  0
   -5.0490   10.2452    0.0000 C   0  0  0  0  0  0  0  0  0  0  0  0
   -5.7990   11.5442    0.0000 F   0  0  0  0  0  0  0  0  0  0  0  0
   -3.7500   10.9952    0.0000 F   0  0  0  0  0  0  0  0  0  0  0  0
   -6.3481    9.4952    0.0000 F   0  0  0  0  0  0  0  0  0  0  0  0
  1  2  1  0
  2  3  1  0
  2  4  1  0
  4  5  1  0
  5  6  1  0
  6  7  1  0
  7  8  1  0
  6  9  1  0
  9 10  1  0
 10 11  1  0
 11 12  1  0
 12 13  1  0
 13 14  2  0
 13 15  2  0
 13 16  1  0
  9 17  1  0
 17 18  2  0
 17 19  2  0
 17 20  1  0
 20 21  1  0
 20 22  1  0
 20 23  1  0
 23 24  1  0
 23 25  1  0
 23 26  1  0
 26 27  1  0
 26 28  1  0
 26 29  1  0
 29 30  1  0
 29 31  1  0
 29 32  1  0
 32 33  1  0
 32 34  1  0
 32 35  1  0
 35 36  1  0
 35 37  1  0
 35 38  1  0
M  END
$$$$

     RDKit          2D

 44 43  0  0  0  0  0  0  0  0999 V2000
    1.2990    0.7500    0.0000 C   0  0  0  0  0  0  0  0  0  0  0  0
   -0.0000    0.0000    0.0000 N   0  0  0  0  0  0  0  0  0  0  0  0
    0.0000   -1.5000    0.0000 C   0  0  0  0  0  0  0  0  0  0  0  0
   -1.2990    0.7500    0.0000 C   0  0  0  0  0  0  0  0  0  0  0  0
   -2.5981    0.0000    0.0000 C   0  0  0  0  0  0  0  0  0  0  0  0
   -3.8971    0.7500    0.0000 C   0  0  0  0  0  0  0  0  0  0  0  0
   -5.1962    0.0000    0.0000 C   0  0  0  0  0  0  0  0  0  0  0  0
   -6.4952    0.7500    0.0000 O   0  0  0  0  0  0  0  0  0  0  0  0
   -3.8971    2.2500    0.0000 N   0  0  0  0  0  0  0  0  0  0  0  0
   -5.1962    3.0000    0.0000 C   0  0  0  0  0  0  0  0  0  0  0  0
   -5.1962    4.5000    0.0000 C   0  0  0  0  0  0  0  0  0  0  0  0
   -6.4952    5.2500    0.0000 C   0  0  0  0  0  0  0  0  0  0  0  0
   -6.4952    6.7500    0.0000 S   0  0  0  0  0  0  0  0  0  0  0  0
   -7.9952    6.7500    0.0000 O   0  0  0  0  0  0  0  0  0  0  0  0
   -5.0064    6.5672    0.0000 O   0  0  0  0  0  0  0  0  0  0  0  0
   -6.6780    8.2388    0.0000 O   0  0  0  0  0  0  0  0  0  0  0  0
   -2.5981    3.0000    0.0000 S   0  0  0  0  0  0  0  0  0  0  0  0
   -1.8481    1.7010    0.0000 O   0  0  0  0  0  0  0  0  0  0  0  0
   -3.0778    3.6366    0.0000 O   0  0  0  0  0  0  0  0  0  0  0  0
   -1.2990    3.7500    0.0000 C   0  0  0  0  0  0  0  0  0  0  0  0
   -0.5490    2.4510    0.0000 F   0  0  0  0  0  0  0  0  0  0  0  0
   -0.0000    4.5000    0.0000 F   0  0  0  0  0  0  0  0  0  0  0  0
   -2.0490    5.0490    0.0000 C   0  0  0  0  0  0  0  0  0  0  0  0
   -2.8644    4.7030    0.0000 F   0  0  0  0  0  0  0  0  0  0  0  0
   -0.7500    5.7990    0.0000 F   0  0  0  0  0  0  0  0  0  0  0  0
   -2.7990    6.3481    0.0000 C   0  0  0  0  0  0  0  0  0  0  0  0
   -4.0981    5.5981    0.0000 F   0  0  0  0  0  0  0  0  0  0  0  0
   -1.5000    7.0981    0.0000 F   0  0  0  0  0  0  0  0  0  0  0  0
   -3.5490    7.6471    0.0000 C   0  0  0  0  0  0  0  0  0  0  0  0
   -4.7470    6.7444    0.0000 F   0  0  0  0  0  0  0  0  0  0  0  0
   -2.2500    8.3971    0.0000 F   0  0  0  0  0  0  0  0  0  0  0  0
   -4.2990    8.9462    0.0000 C   0  0  0  0  0  0  0  0  0  0  0  0
   -3.0000    9.6962    0.0000 F   0  0  0  0  0  0  0  0  0  0  0  0
   -5.6798    8.3601    0.0000 F   0  0  0  0  0  0  0  0  0  0  0  0
   -5.0490   10.2452    0.0000 C   0  0  0  0  0  0  0  0  0  0  0  0
   -6.3481    9.4952    0.0000 F   0  0  0  0  0  0  0  0  0  0  0  0
   -3.7500   10.9952    0.0000 F   0  0  0  0  0  0  0  0  0  0  0  0
   -5.7990   11.5442    0.0000 C   0  0  0  0  0  0  0  0  0  0  0  0
   -4.5000   12.2942    0.0000 F   0  0  0  0  0  0  0  0  0  0  0  0
   -7.0981   10.7942    0.0000 F   0  0  0  0  0  0  0  0  0  0  0  0
   -6.5490   12.8433    0.0000 C   0  0  0  0  0  0  0  0  0  0  0  0
   -7.2990   14.1423    0.0000 F   0  0  0  0  0  0  0  0  0  0  0  0
   -7.8481   12.0933    0.0000 F   0  0  0  0  0  0  0  0  0  0  0  0
   -5.2500   13.5933    0.0000 F   0  0  0  0  0  0  0  0  0  0  0  0
  1  2  1  0
  2  3  1  0
  2  4  1  0
  4  5  1  0
  5  6  1  0
  6  7  1  0
  7  8  1  0
  6  9  1  0
  9 10  1  0
 10 11  1  0
 11 12  1  0
 12 13  1  0
 13 14  2  0
 13 15  2  0
 13 16  1  0
  9 17  1  0
 17 18  2  0
 17 19  2  0
 17 20  1  0
 20 21  1  0
 20 22  1  0
 20 23  1  0
 23 24  1  0
 23 25  1  0
 23 26  1  0
 26 27  1  0
 26 28  1  0
 26 29  1  0
 29 30  1  0
 29 31  1  0
 29 32  1  0
 32 33  1  0
 32 34  1  0
 32 35  1  0
 35 36  1  0
 35 37  1  0
 35 38  1  0
 38 39  1  0
 38 40  1  0
 38 41  1  0
 41 42  1  0
 41 43  1  0
 41 44  1  0
M  END
$$$$

     RDKit          2D

 31 30  0  0  0  0  0  0  0  0999 V2000
    0.0000    0.0000    0.0000 C   0  0  0  0  0  0  0  0  0  0  0  0
    1.2990    0.7500    0.0000 C   0  0  0  0  0  0  0  0  0  0  0  0
    2.5981   -0.0000    0.0000 C   0  0  0  0  0  0  0  0  0  0  0  0
    3.8971    0.7500    0.0000 N   0  0  0  0  0  0  0  0  0  0  0  0
    3.1471    2.0490    0.0000 C   0  0  0  0  0  0  0  0  0  0  0  0
    4.6471   -0.5490    0.0000 C   0  0  0  0  0  0  0  0  0  0  0  0
    5.1962    1.5000    0.0000 C   0  0  0  0  0  0  0  0  0  0  0  0
    5.1962    3.0000    0.0000 C   0  0  0  0  0  0  0  0  0  0  0  0
    6.6962    3.0000    0.0000 F   0  0  0  0  0  0  0  0  0  0  0  0
    3.6962    3.0000    0.0000 F   0  0  0  0  0  0  0  0  0  0  0  0
    5.1962    4.5000    0.0000 C   0  0  0  0  0  0  0  0  0  0  0  0
    3.6962    4.5000    0.0000 F   0  0  0  0  0  0  0  0  0  0  0  0
    6.6962    4.5000    0.0000 F   0  0  0  0  0  0  0  0  0  0  0  0
    5.1962    6.0000    0.0000 C   0  0  0  0  0  0  0  0  0  0  0  0
    6.6962    6.0000    0.0000 F   0  0  0  0  0  0  0  0  0  0  0  0
    3.6962    6.0000    0.0000 F   0  0  0  0  0  0  0  0  0  0  0  0
    5.1962    7.5000    0.0000 C   0  0  0  0  0  0  0  0  0  0  0  0
    3.6962    7.5000    0.0000 F   0  0  0  0  0  0  0  0  0  0  0  0
    6.6962    7.5000    0.0000 F   0  0  0  0  0  0  0  0  0  0  0  0
    5.1962    9.0000    0.0000 C   0  0  0  0  0  0  0  0  0  0  0  0
    3.6962    9.0000    0.0000 F   0  0  0  0  0  0  0  0  0  0  0  0
    6.6962    9.0000    0.0000 F   0  0  0  0  0  0  0  0  0  0  0  0
    5.1962   10.5000    0.0000 C   0  0  0  0  0  0  0  0  0  0  0  0
    6.6962   10.5000    0.0000 F   0  0  0  0  0  0  0  0  0  0  0  0
    3.6962   10.5000    0.0000 F   0  0  0  0  0  0  0  0  0  0  0  0
    5.1962   12.0000    0.0000 C   0  0  0  0  0  0  0  0  0  0  0  0
    3.6962   12.0000    0.0000 F   0  0  0  0  0  0  0  0  0  0  0  0
    6.6962   12.0000    0.0000 F   0  0  0  0  0  0  0  0  0  0  0  0
    5.1962   13.5000    0.0000 C   0  0  0  0  0  0  0  0  0  0  0  0
    3.8971   14.2500    0.0000 F   0  0  0  0  0  0  0  0  0  0  0  0
    6.4952   14.2500    0.0000 F   0  0  0  0  0  0  0  0  0  0  0  0
  1  2  1  0
  2  3  1  0
  3  4  1  0
  4  5  1  0
  4  6  1  0
  4  7  1  0
  7  8  1  0
  8  9  1  0
  8 10  1  0
  8 11  1  0
 11 12  1  0
 11 13  1  0
 11 14  1  0
 14 15  1  0
 14 16  1  0
 14 17  1  0
 17 18  1  0
 17 19  1  0
 17 20  1  0
 20 21  1  0
 20 22  1  0
 20 23  1  0
 23 24  1  0
 23 25  1  0
 23 26  1  0
 26 27  1  0
 26 28  1  0
 26 29  1  0
 29 30  1  0
 29 31  1  0
M  CHG  1   4   1
M  END
$$$$

     RDKit          2D

 47 46  0  0  0  0  0  0  0  0999 V2000
    0.0000    0.0000    0.0000 C   0  0  0  0  0  0  0  0  0  0  0  0
    1.2990    0.7500    0.0000 N   0  0  0  0  0  0  0  0  0  0  0  0
    2.5981    1.5000    0.0000 C   0  0  0  0  0  0  0  0  0  0  0  0
    2.0490   -0.5490    0.0000 C   0  0  0  0  0  0  0  0  0  0  0  0
    0.5490    2.0490    0.0000 C   0  0  0  0  0  0  0  0  0  0  0  0
    1.2990    3.3481    0.0000 C   0  0  0  0  0  0  0  0  0  0  0  0
    0.0000    4.0981    0.0000 F   0  0  0  0  0  0  0  0  0  0  0  0
    2.5981    2.5981    0.0000 F   0  0  0  0  0  0  0  0  0  0  0  0
    2.0490    4.6471    0.0000 C   0  0  0  0  0  0  0  0  0  0  0  0
    3.3481    3.8971    0.0000 F   0  0  0  0  0  0  0  0  0  0  0  0
    0.7500    5.3971    0.0000 F   0  0  0  0  0  0  0  0  0  0  0  0
    2.7990    5.9462    0.0000 C   0  0  0  0  0  0  0  0  0  0  0  0
    1.5000    6.6962    0.0000 F   0  0  0  0  0  0  0  0  0  0  0  0
    4.0981    5.1962    0.0000 F   0  0  0  0  0  0  0  0  0  0  0  0
    3.5490    7.2452    0.0000 C   0  0  0  0  0  0  0  0  0  0  0  0
    4.8481    6.4952    0.0000 F   0  0  0  0  0  0  0  0  0  0  0  0
    2.2500    7.9952    0.0000 F   0  0  0  0  0  0  0  0  0  0  0  0
    4.2990    8.5442    0.0000 C   0  0  0  0  0  0  0  0  0  0  0  0
    3.0000    9.2942    0.0000 F   0  0  0  0  0  0  0  0  0  0  0  0
    5.5981    7.7942    0.0000 F   0  0  0  0  0  0  0  0  0  0  0  0
    5.0490    9.8433    0.0000 C   0  0  0  0  0  0  0  0  0  0  0  0
    6.3481    9.0933    0.0000 F   0  0  0  0  0  0  0  0  0  0  0  0
    3.7500   10.5933    0.0000 F   0  0  0  0  0  0  0  0  0  0  0  0
    5.7990   11.1423    0.0000 C   0  0  0  0  0  0  0  0  0  0  0  0
    4.5000   11.8923    0.0000 F   0  0  0  0  0  0  0  0  0  0  0  0
    7.0981   10.3923    0.0000 F   0  0  0  0  0  0  0  0  0  0  0  0
    6.5490   12.4413    0.0000 C   0  0  0  0  0  0  0  0  0  0  0  0
    5.2500   13.1913    0.0000 F   0  0  0  0  0  0  0  0  0  0  0  0
    7.8481   11.6913    0.0000 F   0  0  0  0  0  0  0  0  0  0  0  0
    7.2990   13.7404    0.0000 C   0  0  0  0  0  0  0  0  0  0  0  0
    8.5981   12.9904    0.0000 F   0  0  0  0  0  0  0  0  0  0  0  0
    6.0000   14.4904    0.0000 F   0  0  0  0  0  0  0  0  0  0  0  0
    8.0490   15.0394    0.0000 C   0  0  0  0  0  0  0  0  0  0  0  0
    6.7500   15.7894    0.0000 F   0  0  0  0  0  0  0  0  0  0  0  0
    9.3481   14.2894    0.0000 F   0  0  0  0  0  0  0  0  0  0  0  0
    8.7990   16.3385    0.0000 C   0  0  0  0  0  0  0  0  0  0  0  0
   10.0981   15.5885    0.0000 F   0  0  0  0  0  0  0  0  0  0  0  0
    7.5000   17.0885    0.0000 F   0  0  0  0  0  0  0  0  0  0  0  0
    9.5490   17.6375    0.0000 C   0  0  0  0  0  0  0  0  0  0  0  0
    8.2500   18.3875    0.0000 F   0  0  0  0  0  0  0  0  0  0  0  0
   10.8481   16.8875    0.0000 F   0  0  0  0  0  0  0  0  0  0  0  0
   10.2990   18.9365    0.0000 C   0  0  0  0  0  0  0  0  0  0  0  0
   11.5981   18.1865    0.0000 F   0  0  0  0  0  0  0  0  0  0  0  0
    9.0000   19.6865    0.0000 F   0  0  0  0  0  0  0  0  0  0  0  0
   11.0490   20.2356    0.0000 C   0  0  0  0  0  0  0  0  0  0  0  0
   12.5490   20.2356    0.0000 F   0  0  0  0  0  0  0  0  0  0  0  0
   10.2990   21.5346    0.0000 F   0  0  0  0  0  0  0  0  0  0  0  0
  1  2  1  0
  2  3  1  0
  2  4  1  0
  2  5  1  0
  5  6  1  0
  6  7  1  0
  6  8  1  0
  6  9  1  0
  9 10  1  0
  9 11  1  0
  9 12  1  0
 12 13  1  0
 12 14  1  0
 12 15  1  0
 15 16  1  0
 15 17  1  0
 15 18  1  0
 18 19  1  0
 18 20  1  0
 18 21  1  0
 21 22  1  0
 21 23  1  0
 21 24  1  0
 24 25  1  0
 24 26  1  0
 24 27  1  0
 27 28  1  0
 27 29  1  0
 27 30  1  0
 30 31  1  0
 30 32  1  0
 30 33  1  0
 33 34  1  0
 33 35  1  0
 33 36  1  0
 36 37  1  0
 36 38  1  0
 36 39  1  0
 39 40  1  0
 39 41  1  0
 39 42  1  0
 42 43  1  0
 42 44  1  0
 42 45  1  0
 45 46  1  0
 45 47  1  0
M  CHG  1   2   1
M  END
$$$$

     RDKit          2D

 46 45  0  0  0  0  0  0  0  0999 V2000
    0.0000    0.0000    0.0000 C   0  0  0  0  0  0  0  0  0  0  0  0
    1.2990    0.7500    0.0000 N   0  0  0  0  0  0  0  0  0  0  0  0
    2.5981    1.5000    0.0000 C   0  0  0  0  0  0  0  0  0  0  0  0
    2.0490   -0.5490    0.0000 C   0  0  0  0  0  0  0  0  0  0  0  0
    3.5490   -0.5490    0.0000 C   0  0  0  0  0  0  0  0  0  0  0  0
    4.2990   -1.8481    0.0000 C   0  0  0  0  0  0  0  0  0  0  0  0
    5.7990   -1.8481    0.0000 C   0  0  0  0  0  0  0  0  0  0  0  0
    6.5490   -3.1471    0.0000 O   0  0  0  0  0  0  0  0  0  0  0  0
    3.5490   -3.1471    0.0000 N   0  0  0  0  0  0  0  0  0  0  0  0
    4.2990   -4.4462    0.0000 C   0  0  0  0  0  0  0  0  0  0  0  0
    3.5490   -5.7452    0.0000 C   0  0  0  0  0  0  0  0  0  0  0  0
    4.2990   -7.0442    0.0000 C   0  0  0  0  0  0  0  0  0  0  0  0
    3.5490   -8.3433    0.0000 S   0  0  0  0  0  0  0  0  0  0  0  0
    4.8481   -9.0933    0.0000 O   0  0  0  0  0  0  0  0  0  0  0  0
    2.3511   -7.4405    0.0000 O   0  0  0  0  0  0  0  0  0  0  0  0
    2.9630   -9.7240    0.0000 O   0  0  0  0  0  0  0  0  0  0  0  0
    2.0490   -3.1471    0.0000 S   0  0  0  0  0  0  0  0  0  0  0  0
    2.0490   -1.6471    0.0000 O   0  0  0  0  0  0  0  0  0  0  0  0
    2.1462   -3.9383    0.0000 O   0  0  0  0  0  0  0  0  0  0  0  0
    0.5490   -3.1471    0.0000 C   0  0  0  0  0  0  0  0  0  0  0  0
    0.5490   -1.6471    0.0000 F   0  0  0  0  0  0  0  0  0  0  0  0
   -0.9510   -3.1471    0.0000 F   0  0  0  0  0  0  0  0  0  0  0  0
    0.5490   -4.6471    0.0000 C   0  0  0  0  0  0  0  0  0  0  0  0
    1.4282   -4.7551    0.0000 F   0  0  0  0  0  0  0  0  0  0  0  0
   -0.9510   -4.6471    0.0000 F   0  0  0  0  0  0  0  0  0  0  0  0
    0.5490   -6.1471    0.0000 C   0  0  0  0  0  0  0  0  0  0  0  0
    2.0490   -6.1471    0.0000 F   0  0  0  0  0  0  0  0  0  0  0  0
   -0.9510   -6.1471    0.0000 F   0  0  0  0  0  0  0  0  0  0  0  0
    0.5490   -7.6471    0.0000 C   0  0  0  0  0  0  0  0  0  0  0  0
    2.0379   -7.4643    0.0000 F   0  0  0  0  0  0  0  0  0  0  0  0
   -0.9510   -7.6471    0.0000 F   0  0  0  0  0  0  0  0  0  0  0  0
    0.5490   -9.1471    0.0000 C   0  0  0  0  0  0  0  0  0  0  0  0
   -0.9510   -9.1471    0.0000 F   0  0  0  0  0  0  0  0  0  0  0  0
    2.0379   -9.3300    0.0000 F   0  0  0  0  0  0  0  0  0  0  0  0
    0.5490  -10.6471    0.0000 C   0  0  0  0  0  0  0  0  0  0  0  0
   -0.9510  -10.6471    0.0000 F   0  0  0  0  0  0  0  0  0  0  0  0
    2.0490  -10.6471    0.0000 F   0  0  0  0  0  0  0  0  0  0  0  0
    0.5490  -12.1471    0.0000 C   0  0  0  0  0  0  0  0  0  0  0  0
    0.5490  -13.6471    0.0000 F   0  0  0  0  0  0  0  0  0  0  0  0
    2.0490  -12.1471    0.0000 F   0  0  0  0  0  0  0  0  0  0  0  0
   -0.9510  -12.1471    0.0000 F   0  0  0  0  0  0  0  0  0  0  0  0
    0.5490    2.0490    0.0000 C   0  0  0  0  0  0  0  0  0  0  0  0
    1.2990    3.3481    0.0000 C   0  0  0  0  0  0  0  0  0  0  0  0
    2.7990    3.3481    0.0000 O   0  0  0  0  0  0  0  0  0  0  0  0
    0.5490    4.6471    0.0000 C   0  0  0  0  0  0  0  0  0  0  0  0
    1.2990    5.9462    0.0000 O   0  0  0  0  0  0  0  0  0  0  0  0
  1  2  1  0
  2  3  1  0
  2  4  1  0
  4  5  1  0
  5  6  1  0
  6  7  1  0
  7  8  1  0
  6  9  1  0
  9 10  1  0
 10 11  1  0
 11 12  1  0
 12 13  1  0
 13 14  2  0
 13 15  2  0
 13 16  1  0
  9 17  1  0
 17 18  2  0
 17 19  2  0
 17 20  1  0
 20 21  1  0
 20 22  1  0
 20 23  1  0
 23 24  1  0
 23 25  1  0
 23 26  1  0
 26 27  1  0
 26 28  1  0
 26 29  1  0
 29 30  1  0
 29 31  1  0
 29 32  1  0
 32 33  1  0
 32 34  1  0
 32 35  1  0
 35 36  1  0
 35 37  1  0
 35 38  1  0
 38 39  1  0
 38 40  1  0
 38 41  1  0
  2 42  1  0
 42 43  1  0
 43 44  1  0
 43 45  1  0
 45 46  1  0
M  CHG  2   2   1  16  -1
M  END
$$$$

     RDKit          2D

 24 23  0  0  0  0  0  0  0  0999 V2000
    0.0000    0.0000    0.0000 C   0  0  0  0  0  0  0  0  0  0  0  0
    1.2990    0.7500    0.0000 C   0  0  0  0  0  0  0  0  0  0  0  0
    2.5981   -0.0000    0.0000 N   0  0  0  0  0  0  0  0  0  0  0  0
    3.8971    0.7500    0.0000 C   0  0  0  0  0  0  0  0  0  0  0  0
    5.1962   -0.0000    0.0000 C   0  0  0  0  0  0  0  0  0  0  0  0
    6.4952    0.7500    0.0000 C   0  0  0  0  0  0  0  0  0  0  0  0
    7.7942   -0.0000    0.0000 N   0  0  0  0  0  0  0  0  0  0  0  0
    8.5442    1.2990    0.0000 C   0  0  0  0  0  0  0  0  0  0  0  0
    7.0442   -1.2990    0.0000 C   0  0  0  0  0  0  0  0  0  0  0  0
    9.0933   -0.7500    0.0000 C   0  0  0  0  0  0  0  0  0  0  0  0
    9.0933   -2.2500    0.0000 C   0  0  0  0  0  0  0  0  0  0  0  0
    2.5981   -1.5000    0.0000 S   0  0  0  0  0  0  0  0  0  0  0  0
    1.8069   -1.4028    0.0000 O   0  0  0  0  0  0  0  0  0  0  0  0
    4.0981   -1.5000    0.0000 O   0  0  0  0  0  0  0  0  0  0  0  0
    2.5981   -3.0000    0.0000 C   0  0  0  0  0  0  0  0  0  0  0  0
    4.0981   -3.0000    0.0000 F   0  0  0  0  0  0  0  0  0  0  0  0
    2.5981   -4.5000    0.0000 F   0  0  0  0  0  0  0  0  0  0  0  0
    1.0981   -3.0000    0.0000 C   0  0  0  0  0  0  0  0  0  0  0  0
    0.9901   -2.1209    0.0000 F   0  0  0  0  0  0  0  0  0  0  0  0
    1.0981   -4.5000    0.0000 F   0  0  0  0  0  0  0  0  0  0  0  0
   -0.4019   -3.0000    0.0000 C   0  0  0  0  0  0  0  0  0  0  0  0
   -1.9019   -3.0000    0.0000 F   0  0  0  0  0  0  0  0  0  0  0  0
   -0.4019   -4.5000    0.0000 F   0  0  0  0  0  0  0  0  0  0  0  0
   -0.4019   -1.5000    0.0000 F   0  0  0  0  0  0  0  0  0  0  0  0
  1  2  1  0
  2  3  1  0
  3  4  1  0
  4  5  1  0
  5  6  1  0
  6  7  1  0
  7  8  1  0
  7  9  1  0
  7 10  1  0
 10 11  1  0
  3 12  1  0
 12 13  2  0
 12 14  2  0
 12 15  1  0
 15 16  1  0
 15 17  1  0
 15 18  1  0
 18 19  1  0
 18 20  1  0
 18 21  1  0
 21 22  1  0
 21 23  1  0
 21 24  1  0
M  CHG  1   7   1
M  END
$$$$

     RDKit          2D

 16 15  0  0  0  0  0  0  0  0999 V2000
    1.2990   -2.2500    0.0000 C   0  0  0  0  0  0  0  0  0  0  0  0
    2.5981   -1.5000    0.0000 C   0  0  0  0  0  0  0  0  0  0  0  0
    2.5981    0.0000    0.0000 N   0  0  0  0  0  0  0  0  0  0  0  0
    3.8971    0.7500    0.0000 S   0  0  0  0  0  0  0  0  0  0  0  0
    4.6471   -0.5490    0.0000 O   0  0  0  0  0  0  0  0  0  0  0  0
    3.4174    1.3866    0.0000 O   0  0  0  0  0  0  0  0  0  0  0  0
    5.1962    1.5000    0.0000 C   0  0  0  0  0  0  0  0  0  0  0  0
    5.9462    0.2010    0.0000 F   0  0  0  0  0  0  0  0  0  0  0  0
    6.4952    2.2500    0.0000 F   0  0  0  0  0  0  0  0  0  0  0  0
    4.4462    2.7990    0.0000 C   0  0  0  0  0  0  0  0  0  0  0  0
    5.7452    3.5490    0.0000 F   0  0  0  0  0  0  0  0  0  0  0  0
    3.6308    2.4530    0.0000 F   0  0  0  0  0  0  0  0  0  0  0  0
    3.6962    4.0981    0.0000 C   0  0  0  0  0  0  0  0  0  0  0  0
    2.9462    5.3971    0.0000 F   0  0  0  0  0  0  0  0  0  0  0  0
    2.3971    3.3481    0.0000 F   0  0  0  0  0  0  0  0  0  0  0  0
    4.9952    4.8481    0.0000 F   0  0  0  0  0  0  0  0  0  0  0  0
  1  2  1  0
  2  3  1  0
  3  4  1  0
  4  5  2  0
  4  6  2  0
  4  7  1  0
  7  8  1  0
  7  9  1  0
  7 10  1  0
 10 11  1  0
 10 12  1  0
 10 13  1  0
 13 14  1  0
 13 15  1  0
 13 16  1  0
M  END
$$$$

     RDKit          2D

 50 49  0  0  0  0  0  0  0  0999 V2000
    0.0000    0.0000    0.0000 C   0  0  0  0  0  0  0  0  0  0  0  0
    1.2990    0.7500    0.0000 C   0  0  0  0  0  0  0  0  0  0  0  0
    2.5981   -0.0000    0.0000 N   0  0  0  0  0  0  0  0  0  0  0  0
    3.8971    0.7500    0.0000 C   0  0  0  0  0  0  0  0  0  0  0  0
    5.1962   -0.0000    0.0000 C   0  0  0  0  0  0  0  0  0  0  0  0
    5.1962   -1.5000    0.0000 O   0  0  0  0  0  0  0  0  0  0  0  0
    6.4952    0.7500    0.0000 O   0  0  0  0  0  0  0  0  0  0  0  0
    2.5981   -1.5000    0.0000 S   0  0  0  0  0  0  0  0  0  0  0  0
    1.8069   -1.4028    0.0000 O   0  0  0  0  0  0  0  0  0  0  0  0
    4.0981   -1.5000    0.0000 O   0  0  0  0  0  0  0  0  0  0  0  0
    2.5981   -3.0000    0.0000 C   0  0  0  0  0  0  0  0  0  0  0  0
    4.0981   -3.0000    0.0000 F   0  0  0  0  0  0  0  0  0  0  0  0
    2.5981   -4.5000    0.0000 F   0  0  0  0  0  0  0  0  0  0  0  0
    1.0981   -3.0000    0.0000 C   0  0  0  0  0  0  0  0  0  0  0  0
    0.9901   -2.1209    0.0000 F   0  0  0  0  0  0  0  0  0  0  0  0
    1.0981   -4.5000    0.0000 F   0  0  0  0  0  0  0  0  0  0  0  0
   -0.4019   -3.0000    0.0000 C   0  0  0  0  0  0  0  0  0  0  0  0
   -0.4019   -1.5000    0.0000 F   0  0  0  0  0  0  0  0  0  0  0  0
   -0.4019   -4.5000    0.0000 F   0  0  0  0  0  0  0  0  0  0  0  0
   -1.9019   -3.0000    0.0000 C   0  0  0  0  0  0  0  0  0  0  0  0
   -1.9019   -4.5000    0.0000 F   0  0  0  0  0  0  0  0  0  0  0  0
   -1.9019   -1.5000    0.0000 F   0  0  0  0  0  0  0  0  0  0  0  0
   -3.4019   -3.0000    0.0000 C   0  0  0  0  0  0  0  0  0  0  0  0
   -3.4019   -1.5000    0.0000 F   0  0  0  0  0  0  0  0  0  0  0  0
   -3.4019   -4.5000    0.0000 F   0  0  0  0  0  0  0  0  0  0  0  0
   -4.9019   -3.0000    0.0000 C   0  0  0  0  0  0  0  0  0  0  0  0
   -4.9019   -4.5000    0.0000 F   0  0  0  0  0  0  0  0  0  0  0  0
   -4.9019   -1.5000    0.0000 F   0  0  0  0  0  0  0  0  0  0  0  0
   -6.4019   -3.0000    0.0000 C   0  0  0  0  0  0  0  0  0  0  0  0
   -6.4019   -1.5000    0.0000 F   0  0  0  0  0  0  0  0  0  0  0  0
   -6.4019   -4.5000    0.0000 F   0  0  0  0  0  0  0  0  0  0  0  0
   -7.9019   -3.0000    0.0000 C   0  0  0  0  0  0  0  0  0  0  0  0
   -7.9019   -1.5000    0.0000 F   0  0  0  0  0  0  0  0  0  0  0  0
   -7.9019   -4.5000    0.0000 F   0  0  0  0  0  0  0  0  0  0  0  0
   -9.4019   -3.0000    0.0000 C   0  0  0  0  0  0  0  0  0  0  0  0
   -9.4019   -4.5000    0.0000 F   0  0  0  0  0  0  0  0  0  0  0  0
   -9.4019   -1.5000    0.0000 F   0  0  0  0  0  0  0  0  0  0  0  0
  -10.9019   -3.0000    0.0000 C   0  0  0  0  0  0  0  0  0  0  0  0
  -10.9019   -1.5000    0.0000 F   0  0  0  0  0  0  0  0  0  0  0  0
  -10.9019   -4.5000    0.0000 F   0  0  0  0  0  0  0  0  0  0  0  0
  -12.4019   -3.0000    0.0000 C   0  0  0  0  0  0  0  0  0  0  0  0
  -12.4019   -4.5000    0.0000 F   0  0  0  0  0  0  0  0  0  0  0  0
  -12.4019   -1.5000    0.0000 F   0  0  0  0  0  0  0  0  0  0  0  0
  -13.9019   -3.0000    0.0000 C   0  0  0  0  0  0  0  0  0  0  0  0
  -13.9019   -1.5000    0.0000 F   0  0  0  0  0  0  0  0  0  0  0  0
  -13.9019   -4.5000    0.0000 F   0  0  0  0  0  0  0  0  0  0  0  0
  -15.4019   -3.0000    0.0000 C   0  0  0  0  0  0  0  0  0  0  0  0
  -16.9019   -3.0000    0.0000 F   0  0  0  0  0  0  0  0  0  0  0  0
  -15.4019   -4.5000    0.0000 F   0  0  0  0  0  0  0  0  0  0  0  0
  -15.4019   -1.5000    0.0000 F   0  0  0  0  0  0  0  0  0  0  0  0
  1  2  1  0
  2  3  1  0
  3  4  1  0
  4  5  1  0
  5  6  2  0
  5  7  1  0
  3  8  1  0
  8  9  2  0
  8 10  2  0
  8 11  1  0
 11 12  1  0
 11 13  1  0
 11 14  1  0
 14 15  1  0
 14 16  1  0
 14 17  1  0
 17 18  1  0
 17 19  1  0
 17 20  1  0
 20 21  1  0
 20 22  1  0
 20 23  1  0
 23 24  1  0
 23 25  1  0
 23 26  1  0
 26 27  1  0
 26 28  1  0
 26 29  1  0
 29 30  1  0
 29 31  1  0
 29 32  1  0
 32 33  1  0
 32 34  1  0
 32 35  1  0
 35 36  1  0
 35 37  1  0
 35 38  1  0
 38 39  1  0
 38 40  1  0
 38 41  1  0
 41 42  1  0
 41 43  1  0
 41 44  1  0
 44 45  1  0
 44 46  1  0
 44 47  1  0
 47 48  1  0
 47 49  1  0
 47 50  1  0
M  END
$$$$

     RDKit          2D

 21 20  0  0  0  0  0  0  0  0999 V2000
    0.0000    0.0000    0.0000 C   0  0  0  0  0  0  0  0  0  0  0  0
    1.2990    0.7500    0.0000 N   0  0  0  0  0  0  0  0  0  0  0  0
    2.5981    1.5000    0.0000 C   0  0  0  0  0  0  0  0  0  0  0  0
    2.0490   -0.5490    0.0000 C   0  0  0  0  0  0  0  0  0  0  0  0
    3.5490   -0.5490    0.0000 C   0  0  0  0  0  0  0  0  0  0  0  0
    4.2990   -1.8481    0.0000 O   0  0  0  0  0  0  0  0  0  0  0  0
    0.5490    2.0490    0.0000 C   0  0  0  0  0  0  0  0  0  0  0  0
    1.2990    3.3481    0.0000 C   0  0  0  0  0  0  0  0  0  0  0  0
    2.7990    3.3481    0.0000 O   0  0  0  0  0  0  0  0  0  0  0  0
    0.5490    4.6471    0.0000 C   0  0  0  0  0  0  0  0  0  0  0  0
    1.2990    5.9462    0.0000 N   0  0  0  0  0  0  0  0  0  0  0  0
    0.5490    7.2452    0.0000 S   0  0  0  0  0  0  0  0  0  0  0  0
   -0.7500    6.4952    0.0000 O   0  0  0  0  0  0  0  0  0  0  0  0
    1.2828    7.5566    0.0000 O   0  0  0  0  0  0  0  0  0  0  0  0
   -0.2010    8.5442    0.0000 C   0  0  0  0  0  0  0  0  0  0  0  0
   -1.5000    7.7942    0.0000 F   0  0  0  0  0  0  0  0  0  0  0  0
   -0.9510    9.8433    0.0000 F   0  0  0  0  0  0  0  0  0  0  0  0
    1.0981    9.2942    0.0000 C   0  0  0  0  0  0  0  0  0  0  0  0
    2.3971   10.0442    0.0000 F   0  0  0  0  0  0  0  0  0  0  0  0
    0.3481   10.5933    0.0000 F   0  0  0  0  0  0  0  0  0  0  0  0
    1.6311    8.5869    0.0000 F   0  0  0  0  0  0  0  0  0  0  0  0
  1  2  1  0
  2  3  1  0
  2  4  1  0
  4  5  1  0
  5  6  1  0
  2  7  1  0
  7  8  1  0
  8  9  1  0
  8 10  1  0
 10 11  1  0
 11 12  1  0
 12 13  2  0
 12 14  2  0
 12 15  1  0
 15 16  1  0
 15 17  1  0
 15 18  1  0
 18 19  1  0
 18 20  1  0
 18 21  1  0
M  CHG  1   2   1
M  END
$$$$

     RDKit          2D

 42 41  0  0  0  0  0  0  0  0999 V2000
   -2.0490   -0.5490    0.0000 O   0  0  0  0  0  0  0  0  0  0  0  0
   -1.2990    0.7500    0.0000 S   0  0  0  0  0  0  0  0  0  0  0  0
   -0.5490    2.0490    0.0000 O   0  0  0  0  0  0  0  0  0  0  0  0
   -2.5981    1.5000    0.0000 O   0  0  0  0  0  0  0  0  0  0  0  0
    0.0000    0.0000    0.0000 C   0  0  0  0  0  0  0  0  0  0  0  0
    1.2990    0.7500    0.0000 C   0  0  0  0  0  0  0  0  0  0  0  0
    0.5490    2.0490    0.0000 F   0  0  0  0  0  0  0  0  0  0  0  0
    2.0490   -0.5490    0.0000 F   0  0  0  0  0  0  0  0  0  0  0  0
    2.5981    1.5000    0.0000 C   0  0  0  0  0  0  0  0  0  0  0  0
    3.3481    0.2010    0.0000 F   0  0  0  0  0  0  0  0  0  0  0  0
    1.8481    2.7990    0.0000 F   0  0  0  0  0  0  0  0  0  0  0  0
    3.8971    2.2500    0.0000 C   0  0  0  0  0  0  0  0  0  0  0  0
    3.1471    3.5490    0.0000 F   0  0  0  0  0  0  0  0  0  0  0  0
    4.6471    0.9510    0.0000 F   0  0  0  0  0  0  0  0  0  0  0  0
    5.1962    3.0000    0.0000 C   0  0  0  0  0  0  0  0  0  0  0  0
    5.9462    1.7010    0.0000 F   0  0  0  0  0  0  0  0  0  0  0  0
    4.4462    4.2990    0.0000 F   0  0  0  0  0  0  0  0  0  0  0  0
    6.4952    3.7500    0.0000 C   0  0  0  0  0  0  0  0  0  0  0  0
    5.7452    5.0490    0.0000 F   0  0  0  0  0  0  0  0  0  0  0  0
    7.2452    2.4510    0.0000 F   0  0  0  0  0  0  0  0  0  0  0  0
    7.7942    4.5000    0.0000 C   0  0  0  0  0  0  0  0  0  0  0  0
    8.5442    3.2010    0.0000 F   0  0  0  0  0  0  0  0  0  0  0  0
    7.0442    5.7990    0.0000 F   0  0  0  0  0  0  0  0  0  0  0  0
    9.0933    5.2500    0.0000 C   0  0  0  0  0  0  0  0  0  0  0  0
    9.8433    3.9510    0.0000 F   0  0  0  0  0  0  0  0  0  0  0  0
    8.3433    6.5490    0.0000 F   0  0  0  0  0  0  0  0  0  0  0  0
   10.3923    6.0000    0.0000 C   0  0  0  0  0  0  0  0  0  0  0  0
    9.6423    7.2990    0.0000 F   0  0  0  0  0  0  0  0  0  0  0  0
   11.1423    4.7010    0.0000 F   0  0  0  0  0  0  0  0  0  0  0  0
   11.6913    6.7500    0.0000 C   0  0  0  0  0  0  0  0  0  0  0  0
   12.4413    5.4510    0.0000 F   0  0  0  0  0  0  0  0  0  0  0  0
   10.9413    8.0490    0.0000 F   0  0  0  0  0  0  0  0  0  0  0  0
   12.9904    7.5000    0.0000 C   0  0  0  0  0  0  0  0  0  0  0  0
   12.2404    8.7990    0.0000 F   0  0  0  0  0  0  0  0  0  0  0  0
   13.7404    6.2010    0.0000 F   0  0  0  0  0  0  0  0  0  0  0  0
   14.2894    8.2500    0.0000 C   0  0  0  0  0  0  0  0  0  0  0  0
   15.0394    6.9510    0.0000 F   0  0  0  0  0  0  0  0  0  0  0  0
   13.5394    9.5490    0.0000 F   0  0  0  0  0  0  0  0  0  0  0  0
   15.5885    9.0000    0.0000 C   0  0  0  0  0  0  0  0  0  0  0  0
   16.8875    9.7500    0.0000 F   0  0  0  0  0  0  0  0  0  0  0  0
   14.8385   10.2990    0.0000 F   0  0  0  0  0  0  0  0  0  0  0  0
   16.3385    7.7010    0.0000 F   0  0  0  0  0  0  0  0  0  0  0  0
  1  2  2  0
  2  3  2  0
  2  4  1  0
  2  5  1  0
  5  6  1  0
  6  7  1  0
  6  8  1  0
  6  9  1  0
  9 10  1  0
  9 11  1  0
  9 12  1  0
 12 13  1  0
 12 14  1  0
 12 15  1  0
 15 16  1  0
 15 17  1  0
 15 18  1  0
 18 19  1  0
 18 20  1  0
 18 21  1  0
 21 22  1  0
 21 23  1  0
 21 24  1  0
 24 25  1  0
 24 26  1  0
 24 27  1  0
 27 28  1  0
 27 29  1  0
 27 30  1  0
 30 31  1  0
 30 32  1  0
 30 33  1  0
 33 34  1  0
 33 35  1  0
 33 36  1  0
 36 37  1  0
 36 38  1  0
 36 39  1  0
 39 40  1  0
 39 41  1  0
 39 42  1  0
M  END
$$$$

     RDKit          2D

 45 44  0  0  0  0  0  0  0  0999 V2000
   -0.0000   -1.5000    0.0000 O   0  0  0  0  0  0  0  0  0  0  0  0
    0.0000    0.0000    0.0000 C   0  0  0  0  0  0  0  0  0  0  0  0
   -1.2990    0.7500    0.0000 O   0  0  0  0  0  0  0  0  0  0  0  0
    1.2990    0.7500    0.0000 C   0  0  0  0  0  0  0  0  0  0  0  0
    1.2990    2.2500    0.0000 F   0  0  0  0  0  0  0  0  0  0  0  0
    2.5981   -0.0000    0.0000 C   0  0  0  0  0  0  0  0  0  0  0  0
    3.3481    1.2990    0.0000 F   0  0  0  0  0  0  0  0  0  0  0  0
    1.8481   -1.2990    0.0000 F   0  0  0  0  0  0  0  0  0  0  0  0
    3.8971   -0.7500    0.0000 C   0  0  0  0  0  0  0  0  0  0  0  0
    3.1471   -2.0490    0.0000 F   0  0  0  0  0  0  0  0  0  0  0  0
    4.6471    0.5490    0.0000 F   0  0  0  0  0  0  0  0  0  0  0  0
    5.1962   -1.5000    0.0000 C   0  0  0  0  0  0  0  0  0  0  0  0
    5.9462   -0.2010    0.0000 F   0  0  0  0  0  0  0  0  0  0  0  0
    4.4462   -2.7990    0.0000 F   0  0  0  0  0  0  0  0  0  0  0  0
    6.4952   -2.2500    0.0000 C   0  0  0  0  0  0  0  0  0  0  0  0
    5.7452   -3.5490    0.0000 F   0  0  0  0  0  0  0  0  0  0  0  0
    7.2452   -0.9510    0.0000 F   0  0  0  0  0  0  0  0  0  0  0  0
    7.7942   -3.0000    0.0000 C   0  0  0  0  0  0  0  0  0  0  0  0
    8.5442   -1.7010    0.0000 F   0  0  0  0  0  0  0  0  0  0  0  0
    7.0442   -4.2990    0.0000 F   0  0  0  0  0  0  0  0  0  0  0  0
    9.0933   -3.7500    0.0000 C   0  0  0  0  0  0  0  0  0  0  0  0
    8.3433   -5.0490    0.0000 F   0  0  0  0  0  0  0  0  0  0  0  0
    9.8433   -2.4510    0.0000 F   0  0  0  0  0  0  0  0  0  0  0  0
   10.3923   -4.5000    0.0000 C   0  0  0  0  0  0  0  0  0  0  0  0
   11.1423   -3.2010    0.0000 F   0  0  0  0  0  0  0  0  0  0  0  0
    9.6423   -5.7990    0.0000 F   0  0  0  0  0  0  0  0  0  0  0  0
   11.6913   -5.2500    0.0000 C   0  0  0  0  0  0  0  0  0  0  0  0
   10.9413   -6.5490    0.0000 F   0  0  0  0  0  0  0  0  0  0  0  0
   12.4413   -3.9510    0.0000 F   0  0  0  0  0  0  0  0  0  0  0  0
   12.9904   -6.0000    0.0000 C   0  0  0  0  0  0  0  0  0  0  0  0
   13.7404   -4.7010    0.0000 F   0  0  0  0  0  0  0  0  0  0  0  0
   12.2404   -7.2990    0.0000 F   0  0  0  0  0  0  0  0  0  0  0  0
   14.2894   -6.7500    0.0000 C   0  0  0  0  0  0  0  0  0  0  0  0
   13.5394   -8.0490    0.0000 F   0  0  0  0  0  0  0  0  0  0  0  0
   15.0394   -5.4510    0.0000 F   0  0  0  0  0  0  0  0  0  0  0  0
   15.5885   -7.5000    0.0000 C   0  0  0  0  0  0  0  0  0  0  0  0
   16.3385   -6.2010    0.0000 F   0  0  0  0  0  0  0  0  0  0  0  0
   14.8385   -8.7990    0.0000 F   0  0  0  0  0  0  0  0  0  0  0  0
   16.8875   -8.2500    0.0000 C   0  0  0  0  0  0  0  0  0  0  0  0
   16.1375   -9.5490    0.0000 F   0  0  0  0  0  0  0  0  0  0  0  0
   17.6375   -6.9510    0.0000 F   0  0  0  0  0  0  0  0  0  0  0  0
   18.1865   -9.0000    0.0000 C   0  0  0  0  0  0  0  0  0  0  0  0
   19.4856   -9.7500    0.0000 F   0  0  0  0  0  0  0  0  0  0  0  0
   18.9365   -7.7010    0.0000 F   0  0  0  0  0  0  0  0  0  0  0  0
   17.4365  -10.2990    0.0000 F   0  0  0  0  0  0  0  0  0  0  0  0
  1  2  2  0
  2  3  1  0
  2  4  1  0
  4  5  1  0
  4  6  1  0
  6  7  1  0
  6  8  1  0
  6  9  1  0
  9 10  1  0
  9 11  1  0
  9 12  1  0
 12 13  1  0
 12 14  1  0
 12 15  1  0
 15 16  1  0
 15 17  1  0
 15 18  1  0
 18 19  1  0
 18 20  1  0
 18 21  1  0
 21 22  1  0
 21 23  1  0
 21 24  1  0
 24 25  1  0
 24 26  1  0
 24 27  1  0
 27 28  1  0
 27 29  1  0
 27 30  1  0
 30 31  1  0
 30 32  1  0
 30 33  1  0
 33 34  1  0
 33 35  1  0
 33 36  1  0
 36 37  1  0
 36 38  1  0
 36 39  1  0
 39 40  1  0
 39 41  1  0
 39 42  1  0
 42 43  1  0
 42 44  1  0
 42 45  1  0
M  END
$$$$

     RDKit          2D

 44 43  0  0  0  0  0  0  0  0999 V2000
   10.2990   -5.9462    0.0000 C   0  0  0  0  0  0  0  0  0  0  0  0
   10.2990   -4.4462    0.0000 N   0  0  0  0  0  0  0  0  0  0  0  0
   10.2990   -2.9462    0.0000 C   0  0  0  0  0  0  0  0  0  0  0  0
   11.7990   -4.4462    0.0000 C   0  0  0  0  0  0  0  0  0  0  0  0
   12.5490   -3.1471    0.0000 C   0  0  0  0  0  0  0  0  0  0  0  0
   14.0490   -3.1471    0.0000 O   0  0  0  0  0  0  0  0  0  0  0  0
    8.7990   -4.4462    0.0000 C   0  0  0  0  0  0  0  0  0  0  0  0
    8.0490   -3.1471    0.0000 C   0  0  0  0  0  0  0  0  0  0  0  0
    6.5490   -3.1471    0.0000 C   0  0  0  0  0  0  0  0  0  0  0  0
    5.7990   -1.8481    0.0000 N   0  0  0  0  0  0  0  0  0  0  0  0
    4.2990   -1.8481    0.0000 C   0  0  0  0  0  0  0  0  0  0  0  0
    3.5490   -0.5490    0.0000 C   0  0  0  0  0  0  0  0  0  0  0  0
    2.0490   -0.5490    0.0000 O   0  0  0  0  0  0  0  0  0  0  0  0
    6.5490   -0.5490    0.0000 S   0  0  0  0  0  0  0  0  0  0  0  0
    7.8481   -1.2990    0.0000 O   0  0  0  0  0  0  0  0  0  0  0  0
    5.8152   -0.2376    0.0000 O   0  0  0  0  0  0  0  0  0  0  0  0
    7.2990    0.7500    0.0000 C   0  0  0  0  0  0  0  0  0  0  0  0
    8.5981    0.0000    0.0000 F   0  0  0  0  0  0  0  0  0  0  0  0
    8.0490    2.0490    0.0000 F   0  0  0  0  0  0  0  0  0  0  0  0
    6.0000    1.5000    0.0000 C   0  0  0  0  0  0  0  0  0  0  0  0
    5.4669    0.7926    0.0000 F   0  0  0  0  0  0  0  0  0  0  0  0
    6.7500    2.7990    0.0000 F   0  0  0  0  0  0  0  0  0  0  0  0
    4.7010    2.2500    0.0000 C   0  0  0  0  0  0  0  0  0  0  0  0
    3.9510    0.9510    0.0000 F   0  0  0  0  0  0  0  0  0  0  0  0
    5.4510    3.5490    0.0000 F   0  0  0  0  0  0  0  0  0  0  0  0
    3.4019    3.0000    0.0000 C   0  0  0  0  0  0  0  0  0  0  0  0
    2.6519    1.7010    0.0000 F   0  0  0  0  0  0  0  0  0  0  0  0
    4.1519    4.2990    0.0000 F   0  0  0  0  0  0  0  0  0  0  0  0
    2.1029    3.7500    0.0000 C   0  0  0  0  0  0  0  0  0  0  0  0
    1.3529    2.4510    0.0000 F   0  0  0  0  0  0  0  0  0  0  0  0
    2.8529    5.0490    0.0000 F   0  0  0  0  0  0  0  0  0  0  0  0
    0.8038    4.5000    0.0000 C   0  0  0  0  0  0  0  0  0  0  0  0
    1.5538    5.7990    0.0000 F   0  0  0  0  0  0  0  0  0  0  0  0
    0.0538    3.2010    0.0000 F   0  0  0  0  0  0  0  0  0  0  0  0
   -0.4952    5.2500    0.0000 C   0  0  0  0  0  0  0  0  0  0  0  0
   -1.2452    3.9510    0.0000 F   0  0  0  0  0  0  0  0  0  0  0  0
    0.2548    6.5490    0.0000 F   0  0  0  0  0  0  0  0  0  0  0  0
   -1.7942    6.0000    0.0000 C   0  0  0  0  0  0  0  0  0  0  0  0
   -1.0442    7.2990    0.0000 F   0  0  0  0  0  0  0  0  0  0  0  0
   -2.5442    4.7010    0.0000 F   0  0  0  0  0  0  0  0  0  0  0  0
   -3.0933    6.7500    0.0000 C   0  0  0  0  0  0  0  0  0  0  0  0
   -4.3923    7.5000    0.0000 F   0  0  0  0  0  0  0  0  0  0  0  0
   -3.8433    5.4510    0.0000 F   0  0  0  0  0  0  0  0  0  0  0  0
   -2.3433    8.0490    0.0000 F   0  0  0  0  0  0  0  0  0  0  0  0
  1  2  1  0
  2  3  1  0
  2  4  1  0
  4  5  1  0
  5  6  1  0
  2  7  1  0
  7  8  1  0
  8  9  1  0
  9 10  1  0
 10 11  1  0
 11 12  1  0
 12 13  1  0
 10 14  1  0
 14 15  2  0
 14 16  2  0
 14 17  1  0
 17 18  1  0
 17 19  1  0
 17 20  1  0
 20 21  1  0
 20 22  1  0
 20 23  1  0
 23 24  1  0
 23 25  1  0
 23 26  1  0
 26 27  1  0
 26 28  1  0
 26 29  1  0
 29 30  1  0
 29 31  1  0
 29 32  1  0
 32 33  1  0
 32 34  1  0
 32 35  1  0
 35 36  1  0
 35 37  1  0
 35 38  1  0
 38 39  1  0
 38 40  1  0
 38 41  1  0
 41 42  1  0
 41 43  1  0
 41 44  1  0
M  CHG  1   2   1
M  END
$$$$

     RDKit          2D

 28 27  0  0  0  0  0  0  0  0999 V2000
    0.0000    0.0000    0.0000 C   0  0  0  0  0  0  0  0  0  0  0  0
    1.2990    0.7500    0.0000 N   0  0  0  0  0  0  0  0  0  0  0  0
    2.5981    1.5000    0.0000 C   0  0  0  0  0  0  0  0  0  0  0  0
    0.5490    2.0490    0.0000 C   0  0  0  0  0  0  0  0  0  0  0  0
    1.2990    3.3481    0.0000 C   0  0  0  0  0  0  0  0  0  0  0  0
    0.5490    4.6471    0.0000 O   0  0  0  0  0  0  0  0  0  0  0  0
    2.0490   -0.5490    0.0000 C   0  0  0  0  0  0  0  0  0  0  0  0
    3.5490   -0.5490    0.0000 C   0  0  0  0  0  0  0  0  0  0  0  0
    4.2990   -1.8481    0.0000 C   0  0  0  0  0  0  0  0  0  0  0  0
    5.7990   -1.8481    0.0000 N   0  0  0  0  0  0  0  0  0  0  0  0
    6.5490   -3.1471    0.0000 C   0  0  0  0  0  0  0  0  0  0  0  0
    8.0490   -3.1471    0.0000 C   0  0  0  0  0  0  0  0  0  0  0  0
    8.7990   -1.8481    0.0000 O   0  0  0  0  0  0  0  0  0  0  0  0
    8.7990   -4.4462    0.0000 C   0  0  0  0  0  0  0  0  0  0  0  0
   10.2990   -4.4462    0.0000 S   0  0  0  0  0  0  0  0  0  0  0  0
   10.2990   -5.9462    0.0000 O   0  0  0  0  0  0  0  0  0  0  0  0
   10.2990   -2.9462    0.0000 O   0  0  0  0  0  0  0  0  0  0  0  0
   11.7990   -4.4462    0.0000 O   0  0  0  0  0  0  0  0  0  0  0  0
    6.5490   -0.5490    0.0000 S   0  0  0  0  0  0  0  0  0  0  0  0
    5.8152   -0.2376    0.0000 O   0  0  0  0  0  0  0  0  0  0  0  0
    7.8481   -1.2990    0.0000 O   0  0  0  0  0  0  0  0  0  0  0  0
    7.2990    0.7500    0.0000 C   0  0  0  0  0  0  0  0  0  0  0  0
    8.5981   -0.0000    0.0000 F   0  0  0  0  0  0  0  0  0  0  0  0
    8.0490    2.0490    0.0000 F   0  0  0  0  0  0  0  0  0  0  0  0
    6.0000    1.5000    0.0000 C   0  0  0  0  0  0  0  0  0  0  0  0
    4.7010    2.2500    0.0000 F   0  0  0  0  0  0  0  0  0  0  0  0
    5.4669    0.7926    0.0000 F   0  0  0  0  0  0  0  0  0  0  0  0
    6.7500    2.7990    0.0000 F   0  0  0  0  0  0  0  0  0  0  0  0
  1  2  1  0
  2  3  1  0
  2  4  1  0
  4  5  1  0
  5  6  1  0
  2  7  1  0
  7  8  1  0
  8  9  1  0
  9 10  1  0
 10 11  1  0
 11 12  1  0
 12 13  1  0
 12 14  1  0
 14 15  1  0
 15 16  2  0
 15 17  2  0
 15 18  1  0
 10 19  1  0
 19 20  2  0
 19 21  2  0
 19 22  1  0
 22 23  1  0
 22 24  1  0
 22 25  1  0
 25 26  1  0
 25 27  1  0
 25 28  1  0
M  CHG  2   2   1  18  -1
M  END
$$$$

     RDKit          2D

 58 57  0  0  0  0  0  0  0  0999 V2000
    0.0000    0.0000    0.0000 C   0  0  0  0  0  0  0  0  0  0  0  0
    1.2990    0.7500    0.0000 N   0  0  0  0  0  0  0  0  0  0  0  0
    2.6798    1.3361    0.0000 C   0  0  0  0  0  0  0  0  0  0  0  0
    0.5490    2.0490    0.0000 C   0  0  0  0  0  0  0  0  0  0  0  0
    1.2990    3.3481    0.0000 C   0  0  0  0  0  0  0  0  0  0  0  0
    0.2570    4.4270    0.0000 O   0  0  0  0  0  0  0  0  0  0  0  0
    2.0490   -0.5490    0.0000 C   0  0  0  0  0  0  0  0  0  0  0  0
    3.5490   -0.5490    0.0000 C   0  0  0  0  0  0  0  0  0  0  0  0
    4.2990   -1.8481    0.0000 C   0  0  0  0  0  0  0  0  0  0  0  0
    5.7990   -1.8481    0.0000 N   0  0  0  0  0  0  0  0  0  0  0  0
    6.5490   -3.1471    0.0000 C   0  0  0  0  0  0  0  0  0  0  0  0
    8.0490   -3.1471    0.0000 C   0  0  0  0  0  0  0  0  0  0  0  0
    8.7990   -1.8481    0.0000 O   0  0  0  0  0  0  0  0  0  0  0  0
    8.7990   -4.4462    0.0000 C   0  0  0  0  0  0  0  0  0  0  0  0
   10.2990   -4.4462    0.0000 S   0  0  0  0  0  0  0  0  0  0  0  0
   10.2990   -5.9462    0.0000 O   0  0  0  0  0  0  0  0  0  0  0  0
   10.2990   -2.9462    0.0000 O   0  0  0  0  0  0  0  0  0  0  0  0
   11.7990   -4.4462    0.0000 O   0  0  0  0  0  0  0  0  0  0  0  0
    6.5490   -0.5490    0.0000 S   0  0  0  0  0  0  0  0  0  0  0  0
    5.8152   -0.2376    0.0000 O   0  0  0  0  0  0  0  0  0  0  0  0
    7.8481   -1.2990    0.0000 O   0  0  0  0  0  0  0  0  0  0  0  0
    7.2990    0.7500    0.0000 C   0  0  0  0  0  0  0  0  0  0  0  0
    8.5981    0.0000    0.0000 F   0  0  0  0  0  0  0  0  0  0  0  0
    8.0490    2.0490    0.0000 F   0  0  0  0  0  0  0  0  0  0  0  0
    6.0000    1.5000    0.0000 C   0  0  0  0  0  0  0  0  0  0  0  0
    5.4669    0.7926    0.0000 F   0  0  0  0  0  0  0  0  0  0  0  0
    6.7500    2.7990    0.0000 F   0  0  0  0  0  0  0  0  0  0  0  0
    4.7010    2.2500    0.0000 C   0  0  0  0  0  0  0  0  0  0  0  0
    3.9510    0.9510    0.0000 F   0  0  0  0  0  0  0  0  0  0  0  0
    5.4510    3.5490    0.0000 F   0  0  0  0  0  0  0  0  0  0  0  0
    3.4019    3.0000    0.0000 C   0  0  0  0  0  0  0  0  0  0  0  0
    2.8159    1.6192    0.0000 F   0  0  0  0  0  0  0  0  0  0  0  0
    4.1519    4.2990    0.0000 F   0  0  0  0  0  0  0  0  0  0  0  0
    2.1029    3.7500    0.0000 C   0  0  0  0  0  0  0  0  0  0  0  0
    1.3529    2.4510    0.0000 F   0  0  0  0  0  0  0  0  0  0  0  0
    2.8529    5.0490    0.0000 F   0  0  0  0  0  0  0  0  0  0  0  0
    0.8038    4.5000    0.0000 C   0  0  0  0  0  0  0  0  0  0  0  0
    0.0538    3.2010    0.0000 F   0  0  0  0  0  0  0  0  0  0  0  0
    1.5538    5.7990    0.0000 F   0  0  0  0  0  0  0  0  0  0  0  0
   -0.4952    5.2500    0.0000 C   0  0  0  0  0  0  0  0  0  0  0  0
   -1.2452    3.9510    0.0000 F   0  0  0  0  0  0  0  0  0  0  0  0
    0.2548    6.5490    0.0000 F   0  0  0  0  0  0  0  0  0  0  0  0
   -1.7942    6.0000    0.0000 C   0  0  0  0  0  0  0  0  0  0  0  0
   -1.0442    7.2990    0.0000 F   0  0  0  0  0  0  0  0  0  0  0  0
   -2.5442    4.7010    0.0000 F   0  0  0  0  0  0  0  0  0  0  0  0
   -3.0933    6.7500    0.0000 C   0  0  0  0  0  0  0  0  0  0  0  0
   -3.8433    5.4510    0.0000 F   0  0  0  0  0  0  0  0  0  0  0  0
   -2.3433    8.0490    0.0000 F   0  0  0  0  0  0  0  0  0  0  0  0
   -4.3923    7.5000    0.0000 C   0  0  0  0  0  0  0  0  0  0  0  0
   -3.6423    8.7990    0.0000 F   0  0  0  0  0  0  0  0  0  0  0  0
   -5.1423    6.2010    0.0000 F   0  0  0  0  0  0  0  0  0  0  0  0
   -5.6913    8.2500    0.0000 C   0  0  0  0  0  0  0  0  0  0  0  0
   -6.4413    6.9510    0.0000 F   0  0  0  0  0  0  0  0  0  0  0  0
   -4.9413    9.5490    0.0000 F   0  0  0  0  0  0  0  0  0  0  0  0
   -6.9904    9.0000    0.0000 C   0  0  0  0  0  0  0  0  0  0  0  0
   -8.2894    9.7500    0.0000 F   0  0  0  0  0  0  0  0  0  0  0  0
   -6.2404   10.2990    0.0000 F   0  0  0  0  0  0  0  0  0  0  0  0
   -7.7404    7.7010    0.0000 F   0  0  0  0  0  0  0  0  0  0  0  0
  1  2  1  0
  2  3  1  0
  2  4  1  0
  4  5  1  0
  5  6  1  0
  2  7  1  0
  7  8  1  0
  8  9  1  0
  9 10  1  0
 10 11  1  0
 11 12  1  0
 12 13  1  0
 12 14  1  0
 14 15  1  0
 15 16  2  0
 15 17  2  0
 15 18  1  0
 10 19  1  0
 19 20  2  0
 19 21  2  0
 19 22  1  0
 22 23  1  0
 22 24  1  0
 22 25  1  0
 25 26  1  0
 25 27  1  0
 25 28  1  0
 28 29  1  0
 28 30  1  0
 28 31  1  0
 31 32  1  0
 31 33  1  0
 31 34  1  0
 34 35  1  0
 34 36  1  0
 34 37  1  0
 37 38  1  0
 37 39  1  0
 37 40  1  0
 40 41  1  0
 40 42  1  0
 40 43  1  0
 43 44  1  0
 43 45  1  0
 43 46  1  0
 46 47  1  0
 46 48  1  0
 46 49  1  0
 49 50  1  0
 49 51  1  0
 49 52  1  0
 52 53  1  0
 52 54  1  0
 52 55  1  0
 55 56  1  0
 55 57  1  0
 55 58  1  0
M  CHG  2   2   1  18  -1
M  END
$$$$

     RDKit          2D

 43 42  0  0  0  0  0  0  0  0999 V2000
   -2.5981    1.5000    0.0000 N   0  0  0  0  0  0  0  0  0  0  0  0
   -1.2990    0.7500    0.0000 S   0  0  0  0  0  0  0  0  0  0  0  0
   -2.0490   -0.5490    0.0000 O   0  0  0  0  0  0  0  0  0  0  0  0
   -0.5490    2.0490    0.0000 O   0  0  0  0  0  0  0  0  0  0  0  0
    0.0000    0.0000    0.0000 C   0  0  0  0  0  0  0  0  0  0  0  0
    1.2990    0.7500    0.0000 C   0  0  0  0  0  0  0  0  0  0  0  0
    2.5981   -0.0000    0.0000 C   0  0  0  0  0  0  0  0  0  0  0  0
    3.3481    1.2990    0.0000 F   0  0  0  0  0  0  0  0  0  0  0  0
    1.8481   -1.2990    0.0000 F   0  0  0  0  0  0  0  0  0  0  0  0
    3.8971   -0.7500    0.0000 C   0  0  0  0  0  0  0  0  0  0  0  0
    3.1471   -2.0490    0.0000 F   0  0  0  0  0  0  0  0  0  0  0  0
    4.6471    0.5490    0.0000 F   0  0  0  0  0  0  0  0  0  0  0  0
    5.1962   -1.5000    0.0000 C   0  0  0  0  0  0  0  0  0  0  0  0
    5.9462   -0.2010    0.0000 F   0  0  0  0  0  0  0  0  0  0  0  0
    4.4462   -2.7990    0.0000 F   0  0  0  0  0  0  0  0  0  0  0  0
    6.4952   -2.2500    0.0000 C   0  0  0  0  0  0  0  0  0  0  0  0
    5.7452   -3.5490    0.0000 F   0  0  0  0  0  0  0  0  0  0  0  0
    7.2452   -0.9510    0.0000 F   0  0  0  0  0  0  0  0  0  0  0  0
    7.7942   -3.0000    0.0000 C   0  0  0  0  0  0  0  0  0  0  0  0
    8.5442   -1.7010    0.0000 F   0  0  0  0  0  0  0  0  0  0  0  0
    7.0442   -4.2990    0.0000 F   0  0  0  0  0  0  0  0  0  0  0  0
    9.0933   -3.7500    0.0000 C   0  0  0  0  0  0  0  0  0  0  0  0
    8.3433   -5.0490    0.0000 F   0  0  0  0  0  0  0  0  0  0  0  0
    9.8433   -2.4510    0.0000 F   0  0  0  0  0  0  0  0  0  0  0  0
   10.3923   -4.5000    0.0000 C   0  0  0  0  0  0  0  0  0  0  0  0
   11.1423   -3.2010    0.0000 F   0  0  0  0  0  0  0  0  0  0  0  0
    9.6423   -5.7990    0.0000 F   0  0  0  0  0  0  0  0  0  0  0  0
   11.6913   -5.2500    0.0000 C   0  0  0  0  0  0  0  0  0  0  0  0
   10.9413   -6.5490    0.0000 F   0  0  0  0  0  0  0  0  0  0  0  0
   12.4413   -3.9510    0.0000 F   0  0  0  0  0  0  0  0  0  0  0  0
   12.9904   -6.0000    0.0000 C   0  0  0  0  0  0  0  0  0  0  0  0
   13.7404   -4.7010    0.0000 F   0  0  0  0  0  0  0  0  0  0  0  0
   12.2404   -7.2990    0.0000 F   0  0  0  0  0  0  0  0  0  0  0  0
   14.2894   -6.7500    0.0000 C   0  0  0  0  0  0  0  0  0  0  0  0
   13.5394   -8.0490    0.0000 F   0  0  0  0  0  0  0  0  0  0  0  0
   15.0394   -5.4510    0.0000 F   0  0  0  0  0  0  0  0  0  0  0  0
   15.5885   -7.5000    0.0000 C   0  0  0  0  0  0  0  0  0  0  0  0
   16.3385   -6.2010    0.0000 F   0  0  0  0  0  0  0  0  0  0  0  0
   14.8385   -8.7990    0.0000 F   0  0  0  0  0  0  0  0  0  0  0  0
   16.8875   -8.2500    0.0000 C   0  0  0  0  0  0  0  0  0  0  0  0
   18.1865   -9.0000    0.0000 F   0  0  0  0  0  0  0  0  0  0  0  0
   16.1375   -9.5490    0.0000 F   0  0  0  0  0  0  0  0  0  0  0  0
   17.6375   -6.9510    0.0000 F   0  0  0  0  0  0  0  0  0  0  0  0
  1  2  1  0
  2  3  2  0
  2  4  2  0
  2  5  1  0
  5  6  1  0
  6  7  1  0
  7  8  1  0
  7  9  1  0
  7 10  1  0
 10 11  1  0
 10 12  1  0
 10 13  1  0
 13 14  1  0
 13 15  1  0
 13 16  1  0
 16 17  1  0
 16 18  1  0
 16 19  1  0
 19 20  1  0
 19 21  1  0
 19 22  1  0
 22 23  1  0
 22 24  1  0
 22 25  1  0
 25 26  1  0
 25 27  1  0
 25 28  1  0
 28 29  1  0
 28 30  1  0
 28 31  1  0
 31 32  1  0
 31 33  1  0
 31 34  1  0
 34 35  1  0
 34 36  1  0
 34 37  1  0
 37 38  1  0
 37 39  1  0
 37 40  1  0
 40 41  1  0
 40 42  1  0
 40 43  1  0
M  END
$$$$

     RDKit          2D

 14 13  0  0  0  0  0  0  0  0999 V2000
    0.0000    0.0000    0.0000 C   0  0  0  0  0  0  0  0  0  0  0  0
    1.2990    0.7500    0.0000 N   0  0  0  0  0  0  0  0  0  0  0  0
    2.5981   -0.0000    0.0000 C   0  0  0  0  0  0  0  0  0  0  0  0
    1.2990    2.2500    0.0000 C   0  0  0  0  0  0  0  0  0  0  0  0
    2.5981    3.0000    0.0000 C   0  0  0  0  0  0  0  0  0  0  0  0
    3.8971    2.2500    0.0000 O   0  0  0  0  0  0  0  0  0  0  0  0
    2.5981    4.5000    0.0000 C   0  0  0  0  0  0  0  0  0  0  0  0
    3.8971    5.2500    0.0000 C   0  0  0  0  0  0  0  0  0  0  0  0
    3.1471    6.5490    0.0000 F   0  0  0  0  0  0  0  0  0  0  0  0
    4.6471    3.9510    0.0000 F   0  0  0  0  0  0  0  0  0  0  0  0
    5.1962    6.0000    0.0000 C   0  0  0  0  0  0  0  0  0  0  0  0
    6.4952    6.7500    0.0000 F   0  0  0  0  0  0  0  0  0  0  0  0
    5.9462    4.7010    0.0000 F   0  0  0  0  0  0  0  0  0  0  0  0
    4.4462    7.2990    0.0000 F   0  0  0  0  0  0  0  0  0  0  0  0
  1  2  1  0
  2  3  1  0
  2  4  1  0
  4  5  1  0
  5  6  1  0
  5  7  1  0
  7  8  1  0
  8  9  1  0
  8 10  1  0
  8 11  1  0
 11 12  1  0
 11 13  1  0
 11 14  1  0
M  END
$$$$

     RDKit          2D

 15 14  0  0  0  0  0  0  0  0999 V2000
   -0.0000   -1.5000    0.0000 O   0  0  0  0  0  0  0  0  0  0  0  0
    0.0000    0.0000    0.0000 C   0  0  0  0  0  0  0  0  0  0  0  0
   -1.2990    0.7500    0.0000 O   0  0  0  0  0  0  0  0  0  0  0  0
    1.2990    0.7500    0.0000 C   0  0  0  0  0  0  0  0  0  0  0  0
    1.5431   -0.1014    0.0000 F   0  0  0  0  0  0  0  0  0  0  0  0
    0.5490    2.0490    0.0000 F   0  0  0  0  0  0  0  0  0  0  0  0
    2.5981    1.5000    0.0000 C   0  0  0  0  0  0  0  0  0  0  0  0
    3.7960    2.4028    0.0000 F   0  0  0  0  0  0  0  0  0  0  0  0
    1.8481    2.7990    0.0000 F   0  0  0  0  0  0  0  0  0  0  0  0
    3.3481    0.2010    0.0000 S   0  0  0  0  0  0  0  0  0  0  0  0
    4.2508    1.3989    0.0000 F   0  0  0  0  0  0  0  0  0  0  0  0
    4.8481    0.2010    0.0000 F   0  0  0  0  0  0  0  0  0  0  0  0
    2.7620   -1.1798    0.0000 F   0  0  0  0  0  0  0  0  0  0  0  0
    4.0981   -1.0981    0.0000 F   0  0  0  0  0  0  0  0  0  0  0  0
    2.6039   -0.0848    0.0000 F   0  0  0  0  0  0  0  0  0  0  0  0
  1  2  2  0
  2  3  1  0
  2  4  1  0
  4  5  1  0
  4  6  1  0
  4  7  1  0
  7  8  1  0
  7  9  1  0
  7 10  1  0
 10 11  1  0
 10 12  1  0
 10 13  1  0
 10 14  1  0
 10 15  1  0
M  END
$$$$

     RDKit          2D

 19 18  0  0  0  0  0  0  0  0999 V2000
    0.0000    0.0000    0.0000 C   0  0  0  0  0  0  0  0  0  0  0  0
    1.2990    0.7500    0.0000 N   0  0  0  0  0  0  0  0  0  0  0  0
    2.5981    1.5000    0.0000 C   0  0  0  0  0  0  0  0  0  0  0  0
    2.0490   -0.5490    0.0000 C   0  0  0  0  0  0  0  0  0  0  0  0
    0.5490    2.0490    0.0000 C   0  0  0  0  0  0  0  0  0  0  0  0
    1.2990    3.3481    0.0000 C   0  0  0  0  0  0  0  0  0  0  0  0
    2.7990    3.3481    0.0000 O   0  0  0  0  0  0  0  0  0  0  0  0
    0.5490    4.6471    0.0000 C   0  0  0  0  0  0  0  0  0  0  0  0
    1.2990    5.9462    0.0000 S   0  0  0  0  0  0  0  0  0  0  0  0
    2.7990    5.9462    0.0000 O   0  0  0  0  0  0  0  0  0  0  0  0
    0.5490    7.2452    0.0000 C   0  0  0  0  0  0  0  0  0  0  0  0
    1.2990    8.5442    0.0000 C   0  0  0  0  0  0  0  0  0  0  0  0
    0.5490    9.8433    0.0000 C   0  0  0  0  0  0  0  0  0  0  0  0
    1.8481   10.5933    0.0000 F   0  0  0  0  0  0  0  0  0  0  0  0
   -0.7500    9.0933    0.0000 F   0  0  0  0  0  0  0  0  0  0  0  0
   -0.2010   11.1423    0.0000 C   0  0  0  0  0  0  0  0  0  0  0  0
   -0.9510   12.4413    0.0000 F   0  0  0  0  0  0  0  0  0  0  0  0
   -1.5000   10.3923    0.0000 F   0  0  0  0  0  0  0  0  0  0  0  0
    1.0981   11.8923    0.0000 F   0  0  0  0  0  0  0  0  0  0  0  0
  1  2  1  0
  2  3  1  0
  2  4  1  0
  2  5  1  0
  5  6  1  0
  6  7  1  0
  6  8  1  0
  8  9  1  0
  9 10  2  0
  9 11  1  0
 11 12  1  0
 12 13  1  0
 13 14  1  0
 13 15  1  0
 13 16  1  0
 16 17  1  0
 16 18  1  0
 16 19  1  0
M  CHG  1   2   1
M  END
$$$$

     RDKit          2D

 32 31  0  0  0  0  0  0  0  0999 V2000
    0.0000   -3.0000    0.0000 N   0  0  0  0  0  0  0  0  0  0  0  0
    0.0000   -1.5000    0.0000 S   0  0  0  0  0  0  0  0  0  0  0  0
   -1.5000   -1.5000    0.0000 O   0  0  0  0  0  0  0  0  0  0  0  0
    0.7912   -1.5972    0.0000 O   0  0  0  0  0  0  0  0  0  0  0  0
    0.0000    0.0000    0.0000 C   0  0  0  0  0  0  0  0  0  0  0  0
   -1.5000    0.0000    0.0000 F   0  0  0  0  0  0  0  0  0  0  0  0
    0.0000    1.5000    0.0000 F   0  0  0  0  0  0  0  0  0  0  0  0
    1.5000    0.0000    0.0000 C   0  0  0  0  0  0  0  0  0  0  0  0
    1.5000    1.5000    0.0000 F   0  0  0  0  0  0  0  0  0  0  0  0
    1.6080   -0.8791    0.0000 F   0  0  0  0  0  0  0  0  0  0  0  0
    3.0000    0.0000    0.0000 C   0  0  0  0  0  0  0  0  0  0  0  0
    3.0000   -1.5000    0.0000 F   0  0  0  0  0  0  0  0  0  0  0  0
    3.0000    1.5000    0.0000 F   0  0  0  0  0  0  0  0  0  0  0  0
    4.5000    0.0000    0.0000 C   0  0  0  0  0  0  0  0  0  0  0  0
    4.5000    1.5000    0.0000 F   0  0  0  0  0  0  0  0  0  0  0  0
    4.5000   -1.5000    0.0000 F   0  0  0  0  0  0  0  0  0  0  0  0
    6.0000    0.0000    0.0000 C   0  0  0  0  0  0  0  0  0  0  0  0
    6.0000   -1.5000    0.0000 F   0  0  0  0  0  0  0  0  0  0  0  0
    6.0000    1.5000    0.0000 F   0  0  0  0  0  0  0  0  0  0  0  0
    7.5000    0.0000    0.0000 C   0  0  0  0  0  0  0  0  0  0  0  0
    7.5000   -1.5000    0.0000 F   0  0  0  0  0  0  0  0  0  0  0  0
    7.5000    1.5000    0.0000 F   0  0  0  0  0  0  0  0  0  0  0  0
    9.0000    0.0000    0.0000 C   0  0  0  0  0  0  0  0  0  0  0  0
    9.0000    1.5000    0.0000 F   0  0  0  0  0  0  0  0  0  0  0  0
    9.0000   -1.5000    0.0000 F   0  0  0  0  0  0  0  0  0  0  0  0
   10.5000    0.0000    0.0000 C   0  0  0  0  0  0  0  0  0  0  0  0
   10.5000   -1.5000    0.0000 F   0  0  0  0  0  0  0  0  0  0  0  0
   10.5000    1.5000    0.0000 F   0  0  0  0  0  0  0  0  0  0  0  0
   12.0000    0.0000    0.0000 C   0  0  0  0  0  0  0  0  0  0  0  0
   13.5000    0.0000    0.0000 F   0  0  0  0  0  0  0  0  0  0  0  0
   12.0000    1.5000    0.0000 F   0  0  0  0  0  0  0  0  0  0  0  0
   12.0000   -1.5000    0.0000 F   0  0  0  0  0  0  0  0  0  0  0  0
  1  2  1  0
  2  3  2  0
  2  4  2  0
  2  5  1  0
  5  6  1  0
  5  7  1  0
  5  8  1  0
  8  9  1  0
  8 10  1  0
  8 11  1  0
 11 12  1  0
 11 13  1  0
 11 14  1  0
 14 15  1  0
 14 16  1  0
 14 17  1  0
 17 18  1  0
 17 19  1  0
 17 20  1  0
 20 21  1  0
 20 22  1  0
 20 23  1  0
 23 24  1  0
 23 25  1  0
 23 26  1  0
 26 27  1  0
 26 28  1  0
 26 29  1  0
 29 30  1  0
 29 31  1  0
 29 32  1  0
M  END
$$$$

     RDKit          2D

 42 41  0  0  0  0  0  0  0  0999 V2000
    1.2990    2.2500    0.0000 O   0  0  0  0  0  0  0  0  0  0  0  0
   -0.0000    3.0000    0.0000 C   0  0  0  0  0  0  0  0  0  0  0  0
   -0.0000    4.5000    0.0000 O   0  0  0  0  0  0  0  0  0  0  0  0
   -1.2990    2.2500    0.0000 C   0  0  0  0  0  0  0  0  0  0  0  0
   -1.2990    0.7500    0.0000 N   0  0  0  0  0  0  0  0  0  0  0  0
   -2.5981   -0.0000    0.0000 S   0  0  0  0  0  0  0  0  0  0  0  0
   -3.3481    1.2990    0.0000 O   0  0  0  0  0  0  0  0  0  0  0  0
   -2.1183   -0.6366    0.0000 O   0  0  0  0  0  0  0  0  0  0  0  0
   -3.8971   -0.7500    0.0000 C   0  0  0  0  0  0  0  0  0  0  0  0
   -4.6471    0.5490    0.0000 F   0  0  0  0  0  0  0  0  0  0  0  0
   -5.1962   -1.5000    0.0000 F   0  0  0  0  0  0  0  0  0  0  0  0
   -3.1471   -2.0490    0.0000 C   0  0  0  0  0  0  0  0  0  0  0  0
   -2.3318   -1.7030    0.0000 F   0  0  0  0  0  0  0  0  0  0  0  0
   -4.4462   -2.7990    0.0000 F   0  0  0  0  0  0  0  0  0  0  0  0
   -2.3971   -3.3481    0.0000 C   0  0  0  0  0  0  0  0  0  0  0  0
   -1.0981   -2.5981    0.0000 F   0  0  0  0  0  0  0  0  0  0  0  0
   -3.6962   -4.0981    0.0000 F   0  0  0  0  0  0  0  0  0  0  0  0
   -1.6471   -4.6471    0.0000 C   0  0  0  0  0  0  0  0  0  0  0  0
   -2.9462   -5.3971    0.0000 F   0  0  0  0  0  0  0  0  0  0  0  0
   -0.3481   -3.8971    0.0000 F   0  0  0  0  0  0  0  0  0  0  0  0
   -0.8971   -5.9462    0.0000 C   0  0  0  0  0  0  0  0  0  0  0  0
    0.4019   -5.1962    0.0000 F   0  0  0  0  0  0  0  0  0  0  0  0
   -2.1962   -6.6962    0.0000 F   0  0  0  0  0  0  0  0  0  0  0  0
   -0.1471   -7.2452    0.0000 C   0  0  0  0  0  0  0  0  0  0  0  0
   -1.4462   -7.9952    0.0000 F   0  0  0  0  0  0  0  0  0  0  0  0
    1.1519   -6.4952    0.0000 F   0  0  0  0  0  0  0  0  0  0  0  0
    0.6029   -8.5442    0.0000 C   0  0  0  0  0  0  0  0  0  0  0  0
   -0.6962   -9.2942    0.0000 F   0  0  0  0  0  0  0  0  0  0  0  0
    1.9019   -7.7942    0.0000 F   0  0  0  0  0  0  0  0  0  0  0  0
    1.3529   -9.8433    0.0000 C   0  0  0  0  0  0  0  0  0  0  0  0
    2.6519   -9.0933    0.0000 F   0  0  0  0  0  0  0  0  0  0  0  0
    0.0538  -10.5933    0.0000 F   0  0  0  0  0  0  0  0  0  0  0  0
    2.1029  -11.1423    0.0000 C   0  0  0  0  0  0  0  0  0  0  0  0
    0.8038  -11.8923    0.0000 F   0  0  0  0  0  0  0  0  0  0  0  0
    3.4019  -10.3923    0.0000 F   0  0  0  0  0  0  0  0  0  0  0  0
    2.8529  -12.4413    0.0000 C   0  0  0  0  0  0  0  0  0  0  0  0
    4.1519  -11.6913    0.0000 F   0  0  0  0  0  0  0  0  0  0  0  0
    1.5538  -13.1913    0.0000 F   0  0  0  0  0  0  0  0  0  0  0  0
    3.6029  -13.7404    0.0000 C   0  0  0  0  0  0  0  0  0  0  0  0
    4.3529  -15.0394    0.0000 F   0  0  0  0  0  0  0  0  0  0  0  0
    2.3038  -14.4904    0.0000 F   0  0  0  0  0  0  0  0  0  0  0  0
    4.9019  -12.9904    0.0000 F   0  0  0  0  0  0  0  0  0  0  0  0
  1  2  2  0
  2  3  1  0
  2  4  1  0
  4  5  1  0
  5  6  1  0
  6  7  2  0
  6  8  2  0
  6  9  1  0
  9 10  1  0
  9 11  1  0
  9 12  1  0
 12 13  1  0
 12 14  1  0
 12 15  1  0
 15 16  1  0
 15 17  1  0
 15 18  1  0
 18 19  1  0
 18 20  1  0
 18 21  1  0
 21 22  1  0
 21 23  1  0
 21 24  1  0
 24 25  1  0
 24 26  1  0
 24 27  1  0
 27 28  1  0
 27 29  1  0
 27 30  1  0
 30 31  1  0
 30 32  1  0
 30 33  1  0
 33 34  1  0
 33 35  1  0
 33 36  1  0
 36 37  1  0
 36 38  1  0
 36 39  1  0
 39 40  1  0
 39 41  1  0
 39 42  1  0
M  END
$$$$

     RDKit          2D

 25 24  0  0  0  0  0  0  0  0999 V2000
    0.0000    0.0000    0.0000 C   0  0  0  0  0  0  0  0  0  0  0  0
    1.2990    0.7500    0.0000 N   0  0  0  0  0  0  0  0  0  0  0  0
    2.5981    1.5000    0.0000 C   0  0  0  0  0  0  0  0  0  0  0  0
    2.0490   -0.5490    0.0000 C   0  0  0  0  0  0  0  0  0  0  0  0
    0.5490    2.0490    0.0000 C   0  0  0  0  0  0  0  0  0  0  0  0
    1.2990    3.3481    0.0000 C   0  0  0  0  0  0  0  0  0  0  0  0
    2.7990    3.3481    0.0000 O   0  0  0  0  0  0  0  0  0  0  0  0
    0.5490    4.6471    0.0000 C   0  0  0  0  0  0  0  0  0  0  0  0
    1.2990    5.9462    0.0000 S   0  0  0  0  0  0  0  0  0  0  0  0
    2.7990    5.9462    0.0000 O   0  0  0  0  0  0  0  0  0  0  0  0
    0.5490    7.2452    0.0000 C   0  0  0  0  0  0  0  0  0  0  0  0
    1.2990    8.5442    0.0000 C   0  0  0  0  0  0  0  0  0  0  0  0
    0.5490    9.8433    0.0000 C   0  0  0  0  0  0  0  0  0  0  0  0
    1.8481   10.5933    0.0000 F   0  0  0  0  0  0  0  0  0  0  0  0
   -0.7500    9.0933    0.0000 F   0  0  0  0  0  0  0  0  0  0  0  0
   -0.2010   11.1423    0.0000 C   0  0  0  0  0  0  0  0  0  0  0  0
   -1.5000   10.3923    0.0000 F   0  0  0  0  0  0  0  0  0  0  0  0
    1.0981   11.8923    0.0000 F   0  0  0  0  0  0  0  0  0  0  0  0
   -0.9510   12.4413    0.0000 C   0  0  0  0  0  0  0  0  0  0  0  0
    0.3481   13.1913    0.0000 F   0  0  0  0  0  0  0  0  0  0  0  0
   -2.2500   11.6913    0.0000 F   0  0  0  0  0  0  0  0  0  0  0  0
   -1.7010   13.7404    0.0000 C   0  0  0  0  0  0  0  0  0  0  0  0
   -2.4510   15.0394    0.0000 F   0  0  0  0  0  0  0  0  0  0  0  0
   -3.0000   12.9904    0.0000 F   0  0  0  0  0  0  0  0  0  0  0  0
   -0.4019   14.4904    0.0000 F   0  0  0  0  0  0  0  0  0  0  0  0
  1  2  1  0
  2  3  1  0
  2  4  1  0
  2  5  1  0
  5  6  1  0
  6  7  1  0
  6  8  1  0
  8  9  1  0
  9 10  2  0
  9 11  1  0
 11 12  1  0
 12 13  1  0
 13 14  1  0
 13 15  1  0
 13 16  1  0
 16 17  1  0
 16 18  1  0
 16 19  1  0
 19 20  1  0
 19 21  1  0
 19 22  1  0
 22 23  1  0
 22 24  1  0
 22 25  1  0
M  CHG  2   2   1   7  -1
M  END
$$$$

     RDKit          2D

 55 54  0  0  0  0  0  0  0  0999 V2000
    0.0000    0.0000    0.0000 C   0  0  0  0  0  0  0  0  0  0  0  0
    1.2990    0.7500    0.0000 N   0  0  0  0  0  0  0  0  0  0  0  0
    2.5981    1.5000    0.0000 C   0  0  0  0  0  0  0  0  0  0  0  0
    2.0490   -0.5490    0.0000 C   0  0  0  0  0  0  0  0  0  0  0  0
    0.5490    2.0490    0.0000 C   0  0  0  0  0  0  0  0  0  0  0  0
    1.2990    3.3481    0.0000 C   0  0  0  0  0  0  0  0  0  0  0  0
    2.7990    3.3481    0.0000 O   0  0  0  0  0  0  0  0  0  0  0  0
    0.5490    4.6471    0.0000 C   0  0  0  0  0  0  0  0  0  0  0  0
    1.2990    5.9462    0.0000 S   0  0  0  0  0  0  0  0  0  0  0  0
    2.7990    5.9462    0.0000 O   0  0  0  0  0  0  0  0  0  0  0  0
    0.5490    7.2452    0.0000 C   0  0  0  0  0  0  0  0  0  0  0  0
    1.2990    8.5442    0.0000 C   0  0  0  0  0  0  0  0  0  0  0  0
    0.5490    9.8433    0.0000 C   0  0  0  0  0  0  0  0  0  0  0  0
    1.8481   10.5933    0.0000 F   0  0  0  0  0  0  0  0  0  0  0  0
   -0.7500    9.0933    0.0000 F   0  0  0  0  0  0  0  0  0  0  0  0
   -0.2010   11.1423    0.0000 C   0  0  0  0  0  0  0  0  0  0  0  0
   -1.5000   10.3923    0.0000 F   0  0  0  0  0  0  0  0  0  0  0  0
    1.0981   11.8923    0.0000 F   0  0  0  0  0  0  0  0  0  0  0  0
   -0.9510   12.4413    0.0000 C   0  0  0  0  0  0  0  0  0  0  0  0
    0.3481   13.1913    0.0000 F   0  0  0  0  0  0  0  0  0  0  0  0
   -2.2500   11.6913    0.0000 F   0  0  0  0  0  0  0  0  0  0  0  0
   -1.7010   13.7404    0.0000 C   0  0  0  0  0  0  0  0  0  0  0  0
   -3.0000   12.9904    0.0000 F   0  0  0  0  0  0  0  0  0  0  0  0
   -0.4019   14.4904    0.0000 F   0  0  0  0  0  0  0  0  0  0  0  0
   -2.4510   15.0394    0.0000 C   0  0  0  0  0  0  0  0  0  0  0  0
   -1.1519   15.7894    0.0000 F   0  0  0  0  0  0  0  0  0  0  0  0
   -3.7500   14.2894    0.0000 F   0  0  0  0  0  0  0  0  0  0  0  0
   -3.2010   16.3385    0.0000 C   0  0  0  0  0  0  0  0  0  0  0  0
   -4.5000   15.5885    0.0000 F   0  0  0  0  0  0  0  0  0  0  0  0
   -1.9019   17.0885    0.0000 F   0  0  0  0  0  0  0  0  0  0  0  0
   -3.9510   17.6375    0.0000 C   0  0  0  0  0  0  0  0  0  0  0  0
   -2.6519   18.3875    0.0000 F   0  0  0  0  0  0  0  0  0  0  0  0
   -5.2500   16.8875    0.0000 F   0  0  0  0  0  0  0  0  0  0  0  0
   -4.7010   18.9365    0.0000 C   0  0  0  0  0  0  0  0  0  0  0  0
   -6.0000   18.1865    0.0000 F   0  0  0  0  0  0  0  0  0  0  0  0
   -3.4019   19.6865    0.0000 F   0  0  0  0  0  0  0  0  0  0  0  0
   -5.4510   20.2356    0.0000 C   0  0  0  0  0  0  0  0  0  0  0  0
   -4.1519   20.9856    0.0000 F   0  0  0  0  0  0  0  0  0  0  0  0
   -6.7500   19.4856    0.0000 F   0  0  0  0  0  0  0  0  0  0  0  0
   -6.2010   21.5346    0.0000 C   0  0  0  0  0  0  0  0  0  0  0  0
   -7.5000   20.7846    0.0000 F   0  0  0  0  0  0  0  0  0  0  0  0
   -4.9019   22.2846    0.0000 F   0  0  0  0  0  0  0  0  0  0  0  0
   -6.9510   22.8336    0.0000 C   0  0  0  0  0  0  0  0  0  0  0  0
   -5.6519   23.5836    0.0000 F   0  0  0  0  0  0  0  0  0  0  0  0
   -8.2500   22.0836    0.0000 F   0  0  0  0  0  0  0  0  0  0  0  0
   -7.7010   24.1327    0.0000 C   0  0  0  0  0  0  0  0  0  0  0  0
   -9.0000   23.3827    0.0000 F   0  0  0  0  0  0  0  0  0  0  0  0
   -6.4019   24.8827    0.0000 F   0  0  0  0  0  0  0  0  0  0  0  0
   -8.4510   25.4317    0.0000 C   0  0  0  0  0  0  0  0  0  0  0  0
   -7.1519   26.1817    0.0000 F   0  0  0  0  0  0  0  0  0  0  0  0
   -9.7500   24.6817    0.0000 F   0  0  0  0  0  0  0  0  0  0  0  0
   -9.2010   26.7308    0.0000 C   0  0  0  0  0  0  0  0  0  0  0  0
   -9.9510   28.0298    0.0000 F   0  0  0  0  0  0  0  0  0  0  0  0
  -10.5000   25.9808    0.0000 F   0  0  0  0  0  0  0  0  0  0  0  0
   -7.9019   27.4808    0.0000 F   0  0  0  0  0  0  0  0  0  0  0  0
  1  2  1  0
  2  3  1  0
  2  4  1  0
  2  5  1  0
  5  6  1  0
  6  7  1  0
  6  8  1  0
  8  9  1  0
  9 10  2  0
  9 11  1  0
 11 12  1  0
 12 13  1  0
 13 14  1  0
 13 15  1  0
 13 16  1  0
 16 17  1  0
 16 18  1  0
 16 19  1  0
 19 20  1  0
 19 21  1  0
 19 22  1  0
 22 23  1  0
 22 24  1  0
 22 25  1  0
 25 26  1  0
 25 27  1  0
 25 28  1  0
 28 29  1  0
 28 30  1  0
 28 31  1  0
 31 32  1  0
 31 33  1  0
 31 34  1  0
 34 35  1  0
 34 36  1  0
 34 37  1  0
 37 38  1  0
 37 39  1  0
 37 40  1  0
 40 41  1  0
 40 42  1  0
 40 43  1  0
 43 44  1  0
 43 45  1  0
 43 46  1  0
 46 47  1  0
 46 48  1  0
 46 49  1  0
 49 50  1  0
 49 51  1  0
 49 52  1  0
 52 53  1  0
 52 54  1  0
 52 55  1  0
M  CHG  1   2   1
M  END
$$$$

     RDKit          2D

 47 46  0  0  0  0  0  0  0  0999 V2000
    0.0000    0.0000    0.0000 C   0  0  0  0  0  0  0  0  0  0  0  0
    1.2990    0.7500    0.0000 N   0  0  0  0  0  0  0  0  0  0  0  0
    2.5981    1.5000    0.0000 C   0  0  0  0  0  0  0  0  0  0  0  0
    2.0490   -0.5490    0.0000 C   0  0  0  0  0  0  0  0  0  0  0  0
    0.5490    2.0490    0.0000 C   0  0  0  0  0  0  0  0  0  0  0  0
    1.2990    3.3481    0.0000 C   0  0  0  0  0  0  0  0  0  0  0  0
    0.5490    4.6471    0.0000 C   0  0  0  0  0  0  0  0  0  0  0  0
    1.2990    5.9462    0.0000 N   0  0  0  0  0  0  0  0  0  0  0  0
    0.5490    7.2452    0.0000 C   0  0  0  0  0  0  0  0  0  0  0  0
   -0.9510    7.2452    0.0000 O   0  0  0  0  0  0  0  0  0  0  0  0
    1.2990    8.5442    0.0000 C   0  0  0  0  0  0  0  0  0  0  0  0
    0.5490    9.8433    0.0000 S   0  0  0  0  0  0  0  0  0  0  0  0
   -0.7500    9.0933    0.0000 O   0  0  0  0  0  0  0  0  0  0  0  0
    1.8481   10.5933    0.0000 O   0  0  0  0  0  0  0  0  0  0  0  0
   -0.2010   11.1423    0.0000 C   0  0  0  0  0  0  0  0  0  0  0  0
   -1.7010   11.1423    0.0000 C   0  0  0  0  0  0  0  0  0  0  0  0
   -2.4510   12.4413    0.0000 C   0  0  0  0  0  0  0  0  0  0  0  0
   -3.7500   11.6913    0.0000 F   0  0  0  0  0  0  0  0  0  0  0  0
   -1.1519   13.1913    0.0000 F   0  0  0  0  0  0  0  0  0  0  0  0
   -3.2010   13.7404    0.0000 C   0  0  0  0  0  0  0  0  0  0  0  0
   -1.9019   14.4904    0.0000 F   0  0  0  0  0  0  0  0  0  0  0  0
   -4.5000   12.9904    0.0000 F   0  0  0  0  0  0  0  0  0  0  0  0
   -3.9510   15.0394    0.0000 C   0  0  0  0  0  0  0  0  0  0  0  0
   -5.2500   14.2894    0.0000 F   0  0  0  0  0  0  0  0  0  0  0  0
   -2.6519   15.7894    0.0000 F   0  0  0  0  0  0  0  0  0  0  0  0
   -4.7010   16.3385    0.0000 C   0  0  0  0  0  0  0  0  0  0  0  0
   -3.4019   17.0885    0.0000 F   0  0  0  0  0  0  0  0  0  0  0  0
   -6.0000   15.5885    0.0000 F   0  0  0  0  0  0  0  0  0  0  0  0
   -5.4510   17.6375    0.0000 C   0  0  0  0  0  0  0  0  0  0  0  0
   -6.7500   16.8875    0.0000 F   0  0  0  0  0  0  0  0  0  0  0  0
   -4.1519   18.3875    0.0000 F   0  0  0  0  0  0  0  0  0  0  0  0
   -6.2010   18.9365    0.0000 C   0  0  0  0  0  0  0  0  0  0  0  0
   -4.9019   19.6865    0.0000 F   0  0  0  0  0  0  0  0  0  0  0  0
   -7.5000   18.1865    0.0000 F   0  0  0  0  0  0  0  0  0  0  0  0
   -6.9510   20.2356    0.0000 C   0  0  0  0  0  0  0  0  0  0  0  0
   -8.2500   19.4856    0.0000 F   0  0  0  0  0  0  0  0  0  0  0  0
   -5.6519   20.9856    0.0000 F   0  0  0  0  0  0  0  0  0  0  0  0
   -7.7010   21.5346    0.0000 C   0  0  0  0  0  0  0  0  0  0  0  0
   -6.4019   22.2846    0.0000 F   0  0  0  0  0  0  0  0  0  0  0  0
   -9.0000   20.7846    0.0000 F   0  0  0  0  0  0  0  0  0  0  0  0
   -8.4510   22.8336    0.0000 C   0  0  0  0  0  0  0  0  0  0  0  0
   -9.7500   22.0836    0.0000 F   0  0  0  0  0  0  0  0  0  0  0  0
   -7.1519   23.5836    0.0000 F   0  0  0  0  0  0  0  0  0  0  0  0
   -9.2010   24.1327    0.0000 C   0  0  0  0  0  0  0  0  0  0  0  0
   -9.9510   25.4317    0.0000 F   0  0  0  0  0  0  0  0  0  0  0  0
   -7.9019   24.8827    0.0000 F   0  0  0  0  0  0  0  0  0  0  0  0
  -10.5000   23.3827    0.0000 F   0  0  0  0  0  0  0  0  0  0  0  0
  1  2  1  0
  2  3  1  0
  2  4  1  0
  2  5  1  0
  5  6  1  0
  6  7  1  0
  7  8  1  0
  8  9  1  0
  9 10  2  0
  9 11  1  0
 11 12  1  0
 12 13  2  0
 12 14  2  0
 12 15  1  0
 15 16  1  0
 16 17  1  0
 17 18  1  0
 17 19  1  0
 17 20  1  0
 20 21  1  0
 20 22  1  0
 20 23  1  0
 23 24  1  0
 23 25  1  0
 23 26  1  0
 26 27  1  0
 26 28  1  0
 26 29  1  0
 29 30  1  0
 29 31  1  0
 29 32  1  0
 32 33  1  0
 32 34  1  0
 32 35  1  0
 35 36  1  0
 35 37  1  0
 35 38  1  0
 38 39  1  0
 38 40  1  0
 38 41  1  0
 41 42  1  0
 41 43  1  0
 41 44  1  0
 44 45  1  0
 44 46  1  0
 44 47  1  0
M  CHG  1   2   1
M  END
$$$$

     RDKit          2D

 17 16  0  0  0  0  0  0  0  0999 V2000
    1.2990    2.2500    0.0000 O   0  0  0  0  0  0  0  0  0  0  0  0
    1.2990    0.7500    0.0000 C   0  0  0  0  0  0  0  0  0  0  0  0
    2.5981   -0.0000    0.0000 O   0  0  0  0  0  0  0  0  0  0  0  0
    0.0000    0.0000    0.0000 C   0  0  0  0  0  0  0  0  0  0  0  0
   -1.2990    0.7500    0.0000 C   0  0  0  0  0  0  0  0  0  0  0  0
   -2.5981    0.0000    0.0000 S   0  0  0  0  0  0  0  0  0  0  0  0
   -3.3481    1.2990    0.0000 O   0  0  0  0  0  0  0  0  0  0  0  0
   -1.8481   -1.2990    0.0000 O   0  0  0  0  0  0  0  0  0  0  0  0
   -3.8971   -0.7500    0.0000 C   0  0  0  0  0  0  0  0  0  0  0  0
   -3.8971   -2.2500    0.0000 C   0  0  0  0  0  0  0  0  0  0  0  0
   -5.1962   -3.0000    0.0000 C   0  0  0  0  0  0  0  0  0  0  0  0
   -4.4462   -4.2990    0.0000 F   0  0  0  0  0  0  0  0  0  0  0  0
   -5.9462   -1.7010    0.0000 F   0  0  0  0  0  0  0  0  0  0  0  0
   -6.4952   -3.7500    0.0000 C   0  0  0  0  0  0  0  0  0  0  0  0
   -7.7942   -4.5000    0.0000 F   0  0  0  0  0  0  0  0  0  0  0  0
   -7.2452   -2.4510    0.0000 F   0  0  0  0  0  0  0  0  0  0  0  0
   -5.7452   -5.0490    0.0000 F   0  0  0  0  0  0  0  0  0  0  0  0
  1  2  2  0
  2  3  1  0
  2  4  1  0
  4  5  1  0
  5  6  1  0
  6  7  2  0
  6  8  2  0
  6  9  1  0
  9 10  1  0
 10 11  1  0
 11 12  1  0
 11 13  1  0
 11 14  1  0
 14 15  1  0
 14 16  1  0
 14 17  1  0
M  END
$$$$

     RDKit          2D

 32 31  0  0  0  0  0  0  0  0999 V2000
   -1.2990    2.2500    0.0000 O   0  0  0  0  0  0  0  0  0  0  0  0
   -1.2990    0.7500    0.0000 C   0  0  0  0  0  0  0  0  0  0  0  0
   -2.5981    0.0000    0.0000 O   0  0  0  0  0  0  0  0  0  0  0  0
    0.0000    0.0000    0.0000 C   0  0  0  0  0  0  0  0  0  0  0  0
    1.2990    0.7500    0.0000 C   0  0  0  0  0  0  0  0  0  0  0  0
    2.5981   -0.0000    0.0000 C   0  0  0  0  0  0  0  0  0  0  0  0
    3.8971    0.7500    0.0000 C   0  0  0  0  0  0  0  0  0  0  0  0
    5.1962   -0.0000    0.0000 N   0  0  0  0  0  0  0  0  0  0  0  0
    6.4952    0.7500    0.0000 C   0  0  0  0  0  0  0  0  0  0  0  0
    7.7942   -0.0000    0.0000 O   0  0  0  0  0  0  0  0  0  0  0  0
    6.4952    2.2500    0.0000 S   0  0  0  0  0  0  0  0  0  0  0  0
    7.7942    3.0000    0.0000 C   0  0  0  0  0  0  0  0  0  0  0  0
    7.7942    4.5000    0.0000 C   0  0  0  0  0  0  0  0  0  0  0  0
    9.0933    5.2500    0.0000 C   0  0  0  0  0  0  0  0  0  0  0  0
    8.3433    6.5490    0.0000 F   0  0  0  0  0  0  0  0  0  0  0  0
    9.8433    3.9510    0.0000 F   0  0  0  0  0  0  0  0  0  0  0  0
   10.3923    6.0000    0.0000 C   0  0  0  0  0  0  0  0  0  0  0  0
   11.1423    4.7010    0.0000 F   0  0  0  0  0  0  0  0  0  0  0  0
    9.6423    7.2990    0.0000 F   0  0  0  0  0  0  0  0  0  0  0  0
   11.6913    6.7500    0.0000 C   0  0  0  0  0  0  0  0  0  0  0  0
   10.9413    8.0490    0.0000 F   0  0  0  0  0  0  0  0  0  0  0  0
   12.4413    5.4510    0.0000 F   0  0  0  0  0  0  0  0  0  0  0  0
   12.9904    7.5000    0.0000 C   0  0  0  0  0  0  0  0  0  0  0  0
   13.7404    6.2010    0.0000 F   0  0  0  0  0  0  0  0  0  0  0  0
   12.2404    8.7990    0.0000 F   0  0  0  0  0  0  0  0  0  0  0  0
   14.2894    8.2500    0.0000 C   0  0  0  0  0  0  0  0  0  0  0  0
   13.5394    9.5490    0.0000 F   0  0  0  0  0  0  0  0  0  0  0  0
   15.0394    6.9510    0.0000 F   0  0  0  0  0  0  0  0  0  0  0  0
   15.5885    9.0000    0.0000 C   0  0  0  0  0  0  0  0  0  0  0  0
   16.8875    9.7500    0.0000 F   0  0  0  0  0  0  0  0  0  0  0  0
   16.3385    7.7010    0.0000 F   0  0  0  0  0  0  0  0  0  0  0  0
   14.8385   10.2990    0.0000 F   0  0  0  0  0  0  0  0  0  0  0  0
  1  2  2  0
  2  3  1  0
  2  4  1  0
  4  5  1  0
  5  6  1  0
  6  7  1  0
  7  8  1  0
  8  9  1  0
  9 10  2  0
  9 11  1  0
 11 12  1  0
 12 13  1  0
 13 14  1  0
 14 15  1  0
 14 16  1  0
 14 17  1  0
 17 18  1  0
 17 19  1  0
 17 20  1  0
 20 21  1  0
 20 22  1  0
 20 23  1  0
 23 24  1  0
 23 25  1  0
 23 26  1  0
 26 27  1  0
 26 28  1  0
 26 29  1  0
 29 30  1  0
 29 31  1  0
 29 32  1  0
M  END
$$$$

     RDKit          2D

 56 55  0  0  0  0  0  0  0  0999 V2000
   -1.2990    2.2500    0.0000 O   0  0  0  0  0  0  0  0  0  0  0  0
   -1.2990    0.7500    0.0000 C   0  0  0  0  0  0  0  0  0  0  0  0
   -2.5981    0.0000    0.0000 O   0  0  0  0  0  0  0  0  0  0  0  0
    0.0000    0.0000    0.0000 C   0  0  0  0  0  0  0  0  0  0  0  0
    1.2990    0.7500    0.0000 C   0  0  0  0  0  0  0  0  0  0  0  0
    2.5981   -0.0000    0.0000 C   0  0  0  0  0  0  0  0  0  0  0  0
    3.8971    0.7500    0.0000 C   0  0  0  0  0  0  0  0  0  0  0  0
    5.1962   -0.0000    0.0000 N   0  0  0  0  0  0  0  0  0  0  0  0
    6.4952    0.7500    0.0000 C   0  0  0  0  0  0  0  0  0  0  0  0
    7.7942   -0.0000    0.0000 O   0  0  0  0  0  0  0  0  0  0  0  0
    6.4952    2.2500    0.0000 S   0  0  0  0  0  0  0  0  0  0  0  0
    7.7942    3.0000    0.0000 C   0  0  0  0  0  0  0  0  0  0  0  0
    7.7942    4.5000    0.0000 C   0  0  0  0  0  0  0  0  0  0  0  0
    9.0933    5.2500    0.0000 C   0  0  0  0  0  0  0  0  0  0  0  0
    8.3433    6.5490    0.0000 F   0  0  0  0  0  0  0  0  0  0  0  0
    9.8433    3.9510    0.0000 F   0  0  0  0  0  0  0  0  0  0  0  0
   10.3923    6.0000    0.0000 C   0  0  0  0  0  0  0  0  0  0  0  0
   11.1423    4.7010    0.0000 F   0  0  0  0  0  0  0  0  0  0  0  0
    9.6423    7.2990    0.0000 F   0  0  0  0  0  0  0  0  0  0  0  0
   11.6913    6.7500    0.0000 C   0  0  0  0  0  0  0  0  0  0  0  0
   10.9413    8.0490    0.0000 F   0  0  0  0  0  0  0  0  0  0  0  0
   12.4413    5.4510    0.0000 F   0  0  0  0  0  0  0  0  0  0  0  0
   12.9904    7.5000    0.0000 C   0  0  0  0  0  0  0  0  0  0  0  0
   13.7404    6.2010    0.0000 F   0  0  0  0  0  0  0  0  0  0  0  0
   12.2404    8.7990    0.0000 F   0  0  0  0  0  0  0  0  0  0  0  0
   14.2894    8.2500    0.0000 C   0  0  0  0  0  0  0  0  0  0  0  0
   13.5394    9.5490    0.0000 F   0  0  0  0  0  0  0  0  0  0  0  0
   15.0394    6.9510    0.0000 F   0  0  0  0  0  0  0  0  0  0  0  0
   15.5885    9.0000    0.0000 C   0  0  0  0  0  0  0  0  0  0  0  0
   16.3385    7.7010    0.0000 F   0  0  0  0  0  0  0  0  0  0  0  0
   14.8385   10.2990    0.0000 F   0  0  0  0  0  0  0  0  0  0  0  0
   16.8875    9.7500    0.0000 C   0  0  0  0  0  0  0  0  0  0  0  0
   16.1375   11.0490    0.0000 F   0  0  0  0  0  0  0  0  0  0  0  0
   17.6375    8.4510    0.0000 F   0  0  0  0  0  0  0  0  0  0  0  0
   18.1865   10.5000    0.0000 C   0  0  0  0  0  0  0  0  0  0  0  0
   18.9365    9.2010    0.0000 F   0  0  0  0  0  0  0  0  0  0  0  0
   17.4365   11.7990    0.0000 F   0  0  0  0  0  0  0  0  0  0  0  0
   19.4856   11.2500    0.0000 C   0  0  0  0  0  0  0  0  0  0  0  0
   18.7356   12.5490    0.0000 F   0  0  0  0  0  0  0  0  0  0  0  0
   20.2356    9.9510    0.0000 F   0  0  0  0  0  0  0  0  0  0  0  0
   20.7846   12.0000    0.0000 C   0  0  0  0  0  0  0  0  0  0  0  0
   21.5346   10.7010    0.0000 F   0  0  0  0  0  0  0  0  0  0  0  0
   20.0346   13.2990    0.0000 F   0  0  0  0  0  0  0  0  0  0  0  0
   22.0836   12.7500    0.0000 C   0  0  0  0  0  0  0  0  0  0  0  0
   21.3336   14.0490    0.0000 F   0  0  0  0  0  0  0  0  0  0  0  0
   22.8336   11.4510    0.0000 F   0  0  0  0  0  0  0  0  0  0  0  0
   23.3827   13.5000    0.0000 C   0  0  0  0  0  0  0  0  0  0  0  0
   24.1327   12.2010    0.0000 F   0  0  0  0  0  0  0  0  0  0  0  0
   22.6327   14.7990    0.0000 F   0  0  0  0  0  0  0  0  0  0  0  0
   24.6817   14.2500    0.0000 C   0  0  0  0  0  0  0  0  0  0  0  0
   23.9317   15.5490    0.0000 F   0  0  0  0  0  0  0  0  0  0  0  0
   25.4317   12.9510    0.0000 F   0  0  0  0  0  0  0  0  0  0  0  0
   25.9808   15.0000    0.0000 C   0  0  0  0  0  0  0  0  0  0  0  0
   27.2798   15.7500    0.0000 F   0  0  0  0  0  0  0  0  0  0  0  0
   26.7308   13.7010    0.0000 F   0  0  0  0  0  0  0  0  0  0  0  0
   25.2308   16.2990    0.0000 F   0  0  0  0  0  0  0  0  0  0  0  0
  1  2  2  0
  2  3  1  0
  2  4  1  0
  4  5  1  0
  5  6  1  0
  6  7  1  0
  7  8  1  0
  8  9  1  0
  9 10  2  0
  9 11  1  0
 11 12  1  0
 12 13  1  0
 13 14  1  0
 14 15  1  0
 14 16  1  0
 14 17  1  0
 17 18  1  0
 17 19  1  0
 17 20  1  0
 20 21  1  0
 20 22  1  0
 20 23  1  0
 23 24  1  0
 23 25  1  0
 23 26  1  0
 26 27  1  0
 26 28  1  0
 26 29  1  0
 29 30  1  0
 29 31  1  0
 29 32  1  0
 32 33  1  0
 32 34  1  0
 32 35  1  0
 35 36  1  0
 35 37  1  0
 35 38  1  0
 38 39  1  0
 38 40  1  0
 38 41  1  0
 41 42  1  0
 41 43  1  0
 41 44  1  0
 44 45  1  0
 44 46  1  0
 44 47  1  0
 47 48  1  0
 47 49  1  0
 47 50  1  0
 50 51  1  0
 50 52  1  0
 50 53  1  0
 53 54  1  0
 53 55  1  0
 53 56  1  0
M  END
$$$$

     RDKit          2D

 24 23  0  0  0  0  0  0  0  0999 V2000
    0.0000    0.0000    0.0000 C   0  0  0  0  0  0  0  0  0  0  0  0
    1.2990    0.7500    0.0000 N   0  0  0  0  0  0  0  0  0  0  0  0
    2.5981    1.5000    0.0000 C   0  0  0  0  0  0  0  0  0  0  0  0
    2.0490   -0.5490    0.0000 C   0  0  0  0  0  0  0  0  0  0  0  0
    3.5490   -0.5490    0.0000 C   0  0  0  0  0  0  0  0  0  0  0  0
    4.2990   -1.8481    0.0000 C   0  0  0  0  0  0  0  0  0  0  0  0
    5.7990   -1.8481    0.0000 N   0  0  0  0  0  0  0  0  0  0  0  0
    6.5490   -3.1471    0.0000 C   0  0  0  0  0  0  0  0  0  0  0  0
    5.7990   -4.4462    0.0000 O   0  0  0  0  0  0  0  0  0  0  0  0
    8.0490   -3.1471    0.0000 C   0  0  0  0  0  0  0  0  0  0  0  0
    8.7990   -4.4462    0.0000 S   0  0  0  0  0  0  0  0  0  0  0  0
   10.2990   -4.4462    0.0000 C   0  0  0  0  0  0  0  0  0  0  0  0
   11.0490   -5.7452    0.0000 C   0  0  0  0  0  0  0  0  0  0  0  0
   12.5490   -5.7452    0.0000 C   0  0  0  0  0  0  0  0  0  0  0  0
   12.5490   -7.2452    0.0000 F   0  0  0  0  0  0  0  0  0  0  0  0
   12.5490   -4.2452    0.0000 F   0  0  0  0  0  0  0  0  0  0  0  0
   14.0490   -5.7452    0.0000 C   0  0  0  0  0  0  0  0  0  0  0  0
   15.5490   -5.7452    0.0000 F   0  0  0  0  0  0  0  0  0  0  0  0
   14.0490   -4.2452    0.0000 F   0  0  0  0  0  0  0  0  0  0  0  0
   14.0490   -7.2452    0.0000 F   0  0  0  0  0  0  0  0  0  0  0  0
    0.5490    2.0490    0.0000 C   0  0  0  0  0  0  0  0  0  0  0  0
    1.2990    3.3481    0.0000 C   0  0  0  0  0  0  0  0  0  0  0  0
    2.7990    3.3481    0.0000 O   0  0  0  0  0  0  0  0  0  0  0  0
    0.5490    4.6471    0.0000 O   0  0  0  0  0  0  0  0  0  0  0  0
  1  2  1  0
  2  3  1  0
  2  4  1  0
  4  5  1  0
  5  6  1  0
  6  7  1  0
  7  8  1  0
  8  9  2  0
  8 10  1  0
 10 11  1  0
 11 12  1  0
 12 13  1  0
 13 14  1  0
 14 15  1  0
 14 16  1  0
 14 17  1  0
 17 18  1  0
 17 19  1  0
 17 20  1  0
  2 21  1  0
 21 22  1  0
 22 23  2  0
 22 24  1  0
M  CHG  2   2   1  24  -1
M  END
$$$$

     RDKit          2D

 60 59  0  0  0  0  0  0  0  0999 V2000
    0.0000    0.0000    0.0000 C   0  0  0  0  0  0  0  0  0  0  0  0
    1.2990    0.7500    0.0000 N   0  0  0  0  0  0  0  0  0  0  0  0
    2.5981    1.5000    0.0000 C   0  0  0  0  0  0  0  0  0  0  0  0
    2.0490   -0.5490    0.0000 C   0  0  0  0  0  0  0  0  0  0  0  0
    3.5490   -0.5490    0.0000 C   0  0  0  0  0  0  0  0  0  0  0  0
    4.2990   -1.8481    0.0000 C   0  0  0  0  0  0  0  0  0  0  0  0
    5.7990   -1.8481    0.0000 N   0  0  0  0  0  0  0  0  0  0  0  0
    6.5490   -3.1471    0.0000 C   0  0  0  0  0  0  0  0  0  0  0  0
    5.7990   -4.4462    0.0000 O   0  0  0  0  0  0  0  0  0  0  0  0
    8.0490   -3.1471    0.0000 C   0  0  0  0  0  0  0  0  0  0  0  0
    8.7990   -4.4462    0.0000 S   0  0  0  0  0  0  0  0  0  0  0  0
   10.2990   -4.4462    0.0000 C   0  0  0  0  0  0  0  0  0  0  0  0
   11.0490   -5.7452    0.0000 C   0  0  0  0  0  0  0  0  0  0  0  0
   12.5490   -5.7452    0.0000 C   0  0  0  0  0  0  0  0  0  0  0  0
   12.5490   -7.2452    0.0000 F   0  0  0  0  0  0  0  0  0  0  0  0
   12.5490   -4.2452    0.0000 F   0  0  0  0  0  0  0  0  0  0  0  0
   14.0490   -5.7452    0.0000 C   0  0  0  0  0  0  0  0  0  0  0  0
   14.0490   -4.2452    0.0000 F   0  0  0  0  0  0  0  0  0  0  0  0
   14.0490   -7.2452    0.0000 F   0  0  0  0  0  0  0  0  0  0  0  0
   15.5490   -5.7452    0.0000 C   0  0  0  0  0  0  0  0  0  0  0  0
   15.5490   -7.2452    0.0000 F   0  0  0  0  0  0  0  0  0  0  0  0
   15.5490   -4.2452    0.0000 F   0  0  0  0  0  0  0  0  0  0  0  0
   17.0490   -5.7452    0.0000 C   0  0  0  0  0  0  0  0  0  0  0  0
   17.0490   -4.2452    0.0000 F   0  0  0  0  0  0  0  0  0  0  0  0
   17.0490   -7.2452    0.0000 F   0  0  0  0  0  0  0  0  0  0  0  0
   18.5490   -5.7452    0.0000 C   0  0  0  0  0  0  0  0  0  0  0  0
   18.5490   -7.2452    0.0000 F   0  0  0  0  0  0  0  0  0  0  0  0
   18.5490   -4.2452    0.0000 F   0  0  0  0  0  0  0  0  0  0  0  0
   20.0490   -5.7452    0.0000 C   0  0  0  0  0  0  0  0  0  0  0  0
   20.0490   -4.2452    0.0000 F   0  0  0  0  0  0  0  0  0  0  0  0
   20.0490   -7.2452    0.0000 F   0  0  0  0  0  0  0  0  0  0  0  0
   21.5490   -5.7452    0.0000 C   0  0  0  0  0  0  0  0  0  0  0  0
   21.5490   -7.2452    0.0000 F   0  0  0  0  0  0  0  0  0  0  0  0
   21.5490   -4.2452    0.0000 F   0  0  0  0  0  0  0  0  0  0  0  0
   23.0490   -5.7452    0.0000 C   0  0  0  0  0  0  0  0  0  0  0  0
   23.0490   -4.2452    0.0000 F   0  0  0  0  0  0  0  0  0  0  0  0
   23.0490   -7.2452    0.0000 F   0  0  0  0  0  0  0  0  0  0  0  0
   24.5490   -5.7452    0.0000 C   0  0  0  0  0  0  0  0  0  0  0  0
   24.5490   -7.2452    0.0000 F   0  0  0  0  0  0  0  0  0  0  0  0
   24.5490   -4.2452    0.0000 F   0  0  0  0  0  0  0  0  0  0  0  0
   26.0490   -5.7452    0.0000 C   0  0  0  0  0  0  0  0  0  0  0  0
   26.0490   -4.2452    0.0000 F   0  0  0  0  0  0  0  0  0  0  0  0
   26.0490   -7.2452    0.0000 F   0  0  0  0  0  0  0  0  0  0  0  0
   27.5490   -5.7452    0.0000 C   0  0  0  0  0  0  0  0  0  0  0  0
   27.5490   -7.2452    0.0000 F   0  0  0  0  0  0  0  0  0  0  0  0
   27.5490   -4.2452    0.0000 F   0  0  0  0  0  0  0  0  0  0  0  0
   29.0490   -5.7452    0.0000 C   0  0  0  0  0  0  0  0  0  0  0  0
   29.0490   -4.2452    0.0000 F   0  0  0  0  0  0  0  0  0  0  0  0
   29.0490   -7.2452    0.0000 F   0  0  0  0  0  0  0  0  0  0  0  0
   30.5490   -5.7452    0.0000 C   0  0  0  0  0  0  0  0  0  0  0  0
   30.5490   -7.2452    0.0000 F   0  0  0  0  0  0  0  0  0  0  0  0
   30.5490   -4.2452    0.0000 F   0  0  0  0  0  0  0  0  0  0  0  0
   32.0490   -5.7452    0.0000 C   0  0  0  0  0  0  0  0  0  0  0  0
   33.5490   -5.7452    0.0000 F   0  0  0  0  0  0  0  0  0  0  0  0
   32.0490   -4.2452    0.0000 F   0  0  0  0  0  0  0  0  0  0  0  0
   32.0490   -7.2452    0.0000 F   0  0  0  0  0  0  0  0  0  0  0  0
    0.5490    2.0490    0.0000 C   0  0  0  0  0  0  0  0  0  0  0  0
    1.2990    3.3481    0.0000 C   0  0  0  0  0  0  0  0  0  0  0  0
    2.7990    3.3481    0.0000 O   0  0  0  0  0  0  0  0  0  0  0  0
    0.5490    4.6471    0.0000 O   0  0  0  0  0  0  0  0  0  0  0  0
  1  2  1  0
  2  3  1  0
  2  4  1  0
  4  5  1  0
  5  6  1  0
  6  7  1  0
  7  8  1  0
  8  9  2  0
  8 10  1  0
 10 11  1  0
 11 12  1  0
 12 13  1  0
 13 14  1  0
 14 15  1  0
 14 16  1  0
 14 17  1  0
 17 18  1  0
 17 19  1  0
 17 20  1  0
 20 21  1  0
 20 22  1  0
 20 23  1  0
 23 24  1  0
 23 25  1  0
 23 26  1  0
 26 27  1  0
 26 28  1  0
 26 29  1  0
 29 30  1  0
 29 31  1  0
 29 32  1  0
 32 33  1  0
 32 34  1  0
 32 35  1  0
 35 36  1  0
 35 37  1  0
 35 38  1  0
 38 39  1  0
 38 40  1  0
 38 41  1  0
 41 42  1  0
 41 43  1  0
 41 44  1  0
 44 45  1  0
 44 46  1  0
 44 47  1  0
 47 48  1  0
 47 49  1  0
 47 50  1  0
 50 51  1  0
 50 52  1  0
 50 53  1  0
 53 54  1  0
 53 55  1  0
 53 56  1  0
  2 57  1  0
 57 58  1  0
 58 59  2  0
 58 60  1  0
M  CHG  2   2   1  60  -1
M  END
$$$$

     RDKit          2D

 22 21  0  0  0  0  0  0  0  0999 V2000
    1.2990    2.2500    0.0000 O   0  0  0  0  0  0  0  0  0  0  0  0
    1.2990    0.7500    0.0000 C   0  0  0  0  0  0  0  0  0  0  0  0
    2.5981   -0.0000    0.0000 O   0  0  0  0  0  0  0  0  0  0  0  0
    0.0000    0.0000    0.0000 C   0  0  0  0  0  0  0  0  0  0  0  0
   -1.2990    0.7500    0.0000 C   0  0  0  0  0  0  0  0  0  0  0  0
   -2.5981    0.0000    0.0000 O   0  0  0  0  0  0  0  0  0  0  0  0
   -1.2990    2.2500    0.0000 S   0  0  0  0  0  0  0  0  0  0  0  0
   -2.5981    3.0000    0.0000 C   0  0  0  0  0  0  0  0  0  0  0  0
   -2.5981    4.5000    0.0000 C   0  0  0  0  0  0  0  0  0  0  0  0
   -3.8971    5.2500    0.0000 C   0  0  0  0  0  0  0  0  0  0  0  0
   -3.1471    6.5490    0.0000 F   0  0  0  0  0  0  0  0  0  0  0  0
   -4.6471    3.9510    0.0000 F   0  0  0  0  0  0  0  0  0  0  0  0
   -5.1962    6.0000    0.0000 C   0  0  0  0  0  0  0  0  0  0  0  0
   -5.9462    4.7010    0.0000 F   0  0  0  0  0  0  0  0  0  0  0  0
   -4.4462    7.2990    0.0000 F   0  0  0  0  0  0  0  0  0  0  0  0
   -6.4952    6.7500    0.0000 C   0  0  0  0  0  0  0  0  0  0  0  0
   -5.7452    8.0490    0.0000 F   0  0  0  0  0  0  0  0  0  0  0  0
   -7.2452    5.4510    0.0000 F   0  0  0  0  0  0  0  0  0  0  0  0
   -7.7942    7.5000    0.0000 C   0  0  0  0  0  0  0  0  0  0  0  0
   -9.0933    8.2500    0.0000 F   0  0  0  0  0  0  0  0  0  0  0  0
   -8.5442    6.2010    0.0000 F   0  0  0  0  0  0  0  0  0  0  0  0
   -7.0442    8.7990    0.0000 F   0  0  0  0  0  0  0  0  0  0  0  0
  1  2  2  0
  2  3  1  0
  2  4  1  0
  4  5  1  0
  5  6  1  0
  5  7  1  0
  7  8  1  0
  8  9  1  0
  9 10  1  0
 10 11  1  0
 10 12  1  0
 10 13  1  0
 13 14  1  0
 13 15  1  0
 13 16  1  0
 16 17  1  0
 16 18  1  0
 16 19  1  0
 19 20  1  0
 19 21  1  0
 19 22  1  0
M  END
$$$$

     RDKit          2D

 48 47  0  0  0  0  0  0  0  0999 V2000
    0.0000    0.0000    0.0000 C   0  0  0  0  0  0  0  0  0  0  0  0
    1.2990    0.7500    0.0000 N   0  0  0  0  0  0  0  0  0  0  0  0
    2.5981    1.5000    0.0000 C   0  0  0  0  0  0  0  0  0  0  0  0
    2.0490   -0.5490    0.0000 C   0  0  0  0  0  0  0  0  0  0  0  0
    0.5490    2.0490    0.0000 C   0  0  0  0  0  0  0  0  0  0  0  0
    1.2990    3.3481    0.0000 C   0  0  0  0  0  0  0  0  0  0  0  0
    2.7990    3.3481    0.0000 O   0  0  0  0  0  0  0  0  0  0  0  0
    0.5490    4.6471    0.0000 C   0  0  0  0  0  0  0  0  0  0  0  0
    1.2990    5.9462    0.0000 S   0  0  0  0  0  0  0  0  0  0  0  0
    0.5490    7.2452    0.0000 C   0  0  0  0  0  0  0  0  0  0  0  0
    1.2990    8.5442    0.0000 C   0  0  0  0  0  0  0  0  0  0  0  0
    0.5490    9.8433    0.0000 C   0  0  0  0  0  0  0  0  0  0  0  0
    1.8481   10.5933    0.0000 F   0  0  0  0  0  0  0  0  0  0  0  0
   -0.7500    9.0933    0.0000 F   0  0  0  0  0  0  0  0  0  0  0  0
   -0.2010   11.1423    0.0000 C   0  0  0  0  0  0  0  0  0  0  0  0
   -1.5000   10.3923    0.0000 F   0  0  0  0  0  0  0  0  0  0  0  0
    1.0981   11.8923    0.0000 F   0  0  0  0  0  0  0  0  0  0  0  0
   -0.9510   12.4413    0.0000 C   0  0  0  0  0  0  0  0  0  0  0  0
    0.3481   13.1913    0.0000 F   0  0  0  0  0  0  0  0  0  0  0  0
   -2.2500   11.6913    0.0000 F   0  0  0  0  0  0  0  0  0  0  0  0
   -1.7010   13.7404    0.0000 C   0  0  0  0  0  0  0  0  0  0  0  0
   -3.0000   12.9904    0.0000 F   0  0  0  0  0  0  0  0  0  0  0  0
   -0.4019   14.4904    0.0000 F   0  0  0  0  0  0  0  0  0  0  0  0
   -2.4510   15.0394    0.0000 C   0  0  0  0  0  0  0  0  0  0  0  0
   -1.1519   15.7894    0.0000 F   0  0  0  0  0  0  0  0  0  0  0  0
   -3.7500   14.2894    0.0000 F   0  0  0  0  0  0  0  0  0  0  0  0
   -3.2010   16.3385    0.0000 C   0  0  0  0  0  0  0  0  0  0  0  0
   -4.5000   15.5885    0.0000 F   0  0  0  0  0  0  0  0  0  0  0  0
   -1.9019   17.0885    0.0000 F   0  0  0  0  0  0  0  0  0  0  0  0
   -3.9510   17.6375    0.0000 C   0  0  0  0  0  0  0  0  0  0  0  0
   -2.6519   18.3875    0.0000 F   0  0  0  0  0  0  0  0  0  0  0  0
   -5.2500   16.8875    0.0000 F   0  0  0  0  0  0  0  0  0  0  0  0
   -4.7010   18.9365    0.0000 C   0  0  0  0  0  0  0  0  0  0  0  0
   -6.0000   18.1865    0.0000 F   0  0  0  0  0  0  0  0  0  0  0  0
   -3.4019   19.6865    0.0000 F   0  0  0  0  0  0  0  0  0  0  0  0
   -5.4510   20.2356    0.0000 C   0  0  0  0  0  0  0  0  0  0  0  0
   -4.1519   20.9856    0.0000 F   0  0  0  0  0  0  0  0  0  0  0  0
   -6.7500   19.4856    0.0000 F   0  0  0  0  0  0  0  0  0  0  0  0
   -6.2010   21.5346    0.0000 C   0  0  0  0  0  0  0  0  0  0  0  0
   -7.5000   20.7846    0.0000 F   0  0  0  0  0  0  0  0  0  0  0  0
   -4.9019   22.2846    0.0000 F   0  0  0  0  0  0  0  0  0  0  0  0
   -6.9510   22.8336    0.0000 C   0  0  0  0  0  0  0  0  0  0  0  0
   -5.6519   23.5836    0.0000 F   0  0  0  0  0  0  0  0  0  0  0  0
   -8.2500   22.0836    0.0000 F   0  0  0  0  0  0  0  0  0  0  0  0
   -7.7010   24.1327    0.0000 C   0  0  0  0  0  0  0  0  0  0  0  0
   -8.4510   25.4317    0.0000 F   0  0  0  0  0  0  0  0  0  0  0  0
   -9.0000   23.3827    0.0000 F   0  0  0  0  0  0  0  0  0  0  0  0
   -6.4019   24.8827    0.0000 F   0  0  0  0  0  0  0  0  0  0  0  0
  1  2  1  0
  2  3  1  0
  2  4  1  0
  2  5  1  0
  5  6  1  0
  6  7  1  0
  6  8  1  0
  8  9  1  0
  9 10  1  0
 10 11  1  0
 11 12  1  0
 12 13  1  0
 12 14  1  0
 12 15  1  0
 15 16  1  0
 15 17  1  0
 15 18  1  0
 18 19  1  0
 18 20  1  0
 18 21  1  0
 21 22  1  0
 21 23  1  0
 21 24  1  0
 24 25  1  0
 24 26  1  0
 24 27  1  0
 27 28  1  0
 27 29  1  0
 27 30  1  0
 30 31  1  0
 30 32  1  0
 30 33  1  0
 33 34  1  0
 33 35  1  0
 33 36  1  0
 36 37  1  0
 36 38  1  0
 36 39  1  0
 39 40  1  0
 39 41  1  0
 39 42  1  0
 42 43  1  0
 42 44  1  0
 42 45  1  0
 45 46  1  0
 45 47  1  0
 45 48  1  0
M  CHG  1   2   1
M  END
$$$$

     RDKit          2D

 21 20  0  0  0  0  0  0  0  0999 V2000
   -2.0490   -0.5490    0.0000 O   0  0  0  0  0  0  0  0  0  0  0  0
   -1.2990    0.7500    0.0000 S   0  0  0  0  0  0  0  0  0  0  0  0
   -0.5490    2.0490    0.0000 O   0  0  0  0  0  0  0  0  0  0  0  0
   -2.5981    1.5000    0.0000 O   0  0  0  0  0  0  0  0  0  0  0  0
    0.0000    0.0000    0.0000 C   0  0  0  0  0  0  0  0  0  0  0  0
    1.2990    0.7500    0.0000 C   0  0  0  0  0  0  0  0  0  0  0  0
    2.5981   -0.0000    0.0000 C   0  0  0  0  0  0  0  0  0  0  0  0
    2.5981   -1.5000    0.0000 F   0  0  0  0  0  0  0  0  0  0  0  0
    3.8971    0.7500    0.0000 C   0  0  0  0  0  0  0  0  0  0  0  0
    4.6471   -0.5490    0.0000 F   0  0  0  0  0  0  0  0  0  0  0  0
    3.1471    2.0490    0.0000 F   0  0  0  0  0  0  0  0  0  0  0  0
    5.1962    1.5000    0.0000 C   0  0  0  0  0  0  0  0  0  0  0  0
    4.4462    2.7990    0.0000 F   0  0  0  0  0  0  0  0  0  0  0  0
    5.9462    0.2010    0.0000 F   0  0  0  0  0  0  0  0  0  0  0  0
    6.4952    2.2500    0.0000 C   0  0  0  0  0  0  0  0  0  0  0  0
    7.2452    0.9510    0.0000 F   0  0  0  0  0  0  0  0  0  0  0  0
    5.7452    3.5490    0.0000 F   0  0  0  0  0  0  0  0  0  0  0  0
    7.7942    3.0000    0.0000 C   0  0  0  0  0  0  0  0  0  0  0  0
    9.0933    3.7500    0.0000 F   0  0  0  0  0  0  0  0  0  0  0  0
    7.0442    4.2990    0.0000 F   0  0  0  0  0  0  0  0  0  0  0  0
    8.5442    1.7010    0.0000 F   0  0  0  0  0  0  0  0  0  0  0  0
  1  2  2  0
  2  3  2  0
  2  4  1  0
  2  5  1  0
  5  6  1  0
  6  7  2  3
  7  8  1  0
  7  9  1  0
  9 10  1  0
  9 11  1  0
  9 12  1  0
 12 13  1  0
 12 14  1  0
 12 15  1  0
 15 16  1  0
 15 17  1  0
 15 18  1  0
 18 19  1  0
 18 20  1  0
 18 21  1  0
M  END
$$$$

     RDKit          2D

 42 41  0  0  0  0  0  0  0  0999 V2000
   -2.0490   -0.5490    0.0000 O   0  0  0  0  0  0  0  0  0  0  0  0
   -1.2990    0.7500    0.0000 S   0  0  0  0  0  0  0  0  0  0  0  0
   -0.5490    2.0490    0.0000 O   0  0  0  0  0  0  0  0  0  0  0  0
   -2.5981    1.5000    0.0000 O   0  0  0  0  0  0  0  0  0  0  0  0
    0.0000    0.0000    0.0000 C   0  0  0  0  0  0  0  0  0  0  0  0
    1.2990    0.7500    0.0000 C   0  0  0  0  0  0  0  0  0  0  0  0
    2.5981   -0.0000    0.0000 C   0  0  0  0  0  0  0  0  0  0  0  0
    2.5981   -1.5000    0.0000 F   0  0  0  0  0  0  0  0  0  0  0  0
    3.8971    0.7500    0.0000 C   0  0  0  0  0  0  0  0  0  0  0  0
    4.6471   -0.5490    0.0000 F   0  0  0  0  0  0  0  0  0  0  0  0
    3.1471    2.0490    0.0000 F   0  0  0  0  0  0  0  0  0  0  0  0
    5.1962    1.5000    0.0000 C   0  0  0  0  0  0  0  0  0  0  0  0
    4.4462    2.7990    0.0000 F   0  0  0  0  0  0  0  0  0  0  0  0
    5.9462    0.2010    0.0000 F   0  0  0  0  0  0  0  0  0  0  0  0
    6.4952    2.2500    0.0000 C   0  0  0  0  0  0  0  0  0  0  0  0
    7.2452    0.9510    0.0000 F   0  0  0  0  0  0  0  0  0  0  0  0
    5.7452    3.5490    0.0000 F   0  0  0  0  0  0  0  0  0  0  0  0
    7.7942    3.0000    0.0000 C   0  0  0  0  0  0  0  0  0  0  0  0
    7.0442    4.2990    0.0000 F   0  0  0  0  0  0  0  0  0  0  0  0
    8.5442    1.7010    0.0000 F   0  0  0  0  0  0  0  0  0  0  0  0
    9.0933    3.7500    0.0000 C   0  0  0  0  0  0  0  0  0  0  0  0
    9.8433    2.4510    0.0000 F   0  0  0  0  0  0  0  0  0  0  0  0
    8.3433    5.0490    0.0000 F   0  0  0  0  0  0  0  0  0  0  0  0
   10.3923    4.5000    0.0000 C   0  0  0  0  0  0  0  0  0  0  0  0
    9.6423    5.7990    0.0000 F   0  0  0  0  0  0  0  0  0  0  0  0
   11.1423    3.2010    0.0000 F   0  0  0  0  0  0  0  0  0  0  0  0
   11.6913    5.2500    0.0000 C   0  0  0  0  0  0  0  0  0  0  0  0
   12.4413    3.9510    0.0000 F   0  0  0  0  0  0  0  0  0  0  0  0
   10.9413    6.5490    0.0000 F   0  0  0  0  0  0  0  0  0  0  0  0
   12.9904    6.0000    0.0000 C   0  0  0  0  0  0  0  0  0  0  0  0
   12.2404    7.2990    0.0000 F   0  0  0  0  0  0  0  0  0  0  0  0
   13.7404    4.7010    0.0000 F   0  0  0  0  0  0  0  0  0  0  0  0
   14.2894    6.7500    0.0000 C   0  0  0  0  0  0  0  0  0  0  0  0
   15.0394    5.4510    0.0000 F   0  0  0  0  0  0  0  0  0  0  0  0
   13.5394    8.0490    0.0000 F   0  0  0  0  0  0  0  0  0  0  0  0
   15.5885    7.5000    0.0000 C   0  0  0  0  0  0  0  0  0  0  0  0
   14.8385    8.7990    0.0000 F   0  0  0  0  0  0  0  0  0  0  0  0
   16.3385    6.2010    0.0000 F   0  0  0  0  0  0  0  0  0  0  0  0
   16.8875    8.2500    0.0000 C   0  0  0  0  0  0  0  0  0  0  0  0
   18.1865    9.0000    0.0000 F   0  0  0  0  0  0  0  0  0  0  0  0
   17.6375    6.9510    0.0000 F   0  0  0  0  0  0  0  0  0  0  0  0
   16.1375    9.5490    0.0000 F   0  0  0  0  0  0  0  0  0  0  0  0
  1  2  2  0
  2  3  2  0
  2  4  1  0
  2  5  1  0
  5  6  1  0
  6  7  2  3
  7  8  1  0
  7  9  1  0
  9 10  1  0
  9 11  1  0
  9 12  1  0
 12 13  1  0
 12 14  1  0
 12 15  1  0
 15 16  1  0
 15 17  1  0
 15 18  1  0
 18 19  1  0
 18 20  1  0
 18 21  1  0
 21 22  1  0
 21 23  1  0
 21 24  1  0
 24 25  1  0
 24 26  1  0
 24 27  1  0
 27 28  1  0
 27 29  1  0
 27 30  1  0
 30 31  1  0
 30 32  1  0
 30 33  1  0
 33 34  1  0
 33 35  1  0
 33 36  1  0
 36 37  1  0
 36 38  1  0
 36 39  1  0
 39 40  1  0
 39 41  1  0
 39 42  1  0
M  END
$$$$

     RDKit          2D

 43 42  0  0  0  0  0  0  0  0999 V2000
    0.0000    0.0000    0.0000 C   0  0  0  0  0  0  0  0  0  0  0  0
    1.2990    0.7500    0.0000 C   0  0  0  0  0  0  0  0  0  0  0  0
    1.2990    2.2500    0.0000 O   0  0  0  0  0  0  0  0  0  0  0  0
    2.5981   -0.0000    0.0000 O   0  0  0  0  0  0  0  0  0  0  0  0
    3.8971    0.7500    0.0000 C   0  0  0  0  0  0  0  0  0  0  0  0
    5.1962   -0.0000    0.0000 C   0  0  0  0  0  0  0  0  0  0  0  0
    6.4952    0.7500    0.0000 C   0  0  0  0  0  0  0  0  0  0  0  0
    7.7942   -0.0000    0.0000 O   0  0  0  0  0  0  0  0  0  0  0  0
    5.1962   -1.5000    0.0000 C   0  0  0  0  0  0  0  0  0  0  0  0
    6.6962   -1.5000    0.0000 F   0  0  0  0  0  0  0  0  0  0  0  0
    3.6962   -1.5000    0.0000 F   0  0  0  0  0  0  0  0  0  0  0  0
    5.1962   -3.0000    0.0000 C   0  0  0  0  0  0  0  0  0  0  0  0
    3.6962   -3.0000    0.0000 F   0  0  0  0  0  0  0  0  0  0  0  0
    6.6962   -3.0000    0.0000 F   0  0  0  0  0  0  0  0  0  0  0  0
    5.1962   -4.5000    0.0000 C   0  0  0  0  0  0  0  0  0  0  0  0
    6.6962   -4.5000    0.0000 F   0  0  0  0  0  0  0  0  0  0  0  0
    3.6962   -4.5000    0.0000 F   0  0  0  0  0  0  0  0  0  0  0  0
    5.1962   -6.0000    0.0000 C   0  0  0  0  0  0  0  0  0  0  0  0
    3.6962   -6.0000    0.0000 F   0  0  0  0  0  0  0  0  0  0  0  0
    6.6962   -6.0000    0.0000 F   0  0  0  0  0  0  0  0  0  0  0  0
    5.1962   -7.5000    0.0000 C   0  0  0  0  0  0  0  0  0  0  0  0
    6.6962   -7.5000    0.0000 F   0  0  0  0  0  0  0  0  0  0  0  0
    3.6962   -7.5000    0.0000 F   0  0  0  0  0  0  0  0  0  0  0  0
    5.1962   -9.0000    0.0000 C   0  0  0  0  0  0  0  0  0  0  0  0
    3.6962   -9.0000    0.0000 F   0  0  0  0  0  0  0  0  0  0  0  0
    6.6962   -9.0000    0.0000 F   0  0  0  0  0  0  0  0  0  0  0  0
    5.1962  -10.5000    0.0000 C   0  0  0  0  0  0  0  0  0  0  0  0
    6.6962  -10.5000    0.0000 F   0  0  0  0  0  0  0  0  0  0  0  0
    3.6962  -10.5000    0.0000 F   0  0  0  0  0  0  0  0  0  0  0  0
    5.1962  -12.0000    0.0000 C   0  0  0  0  0  0  0  0  0  0  0  0
    5.1962  -13.5000    0.0000 F   0  0  0  0  0  0  0  0  0  0  0  0
    3.6962  -12.0000    0.0000 F   0  0  0  0  0  0  0  0  0  0  0  0
    6.6962  -12.0000    0.0000 F   0  0  0  0  0  0  0  0  0  0  0  0
    3.8971    2.2500    0.0000 C   0  0  0  0  0  0  0  0  0  0  0  0
    2.5981    3.0000    0.0000 C   0  0  0  0  0  0  0  0  0  0  0  0
    2.5981    4.5000    0.0000 O   0  0  0  0  0  0  0  0  0  0  0  0
    5.1962    3.0000    0.0000 N   0  0  0  0  0  0  0  0  0  0  0  0
    4.4462    4.2990    0.0000 C   0  0  0  0  0  0  0  0  0  0  0  0
    5.9462    1.7010    0.0000 C   0  0  0  0  0  0  0  0  0  0  0  0
    6.4952    3.7500    0.0000 C   0  0  0  0  0  0  0  0  0  0  0  0
    6.4952    5.2500    0.0000 C   0  0  0  0  0  0  0  0  0  0  0  0
    5.1962    6.0000    0.0000 O   0  0  0  0  0  0  0  0  0  0  0  0
    7.7942    6.0000    0.0000 O   0  0  0  0  0  0  0  0  0  0  0  0
  1  2  1  0
  2  3  2  0
  2  4  1  0
  4  5  1  0
  5  6  1  0
  6  7  1  0
  7  8  1  0
  6  9  1  0
  9 10  1  0
  9 11  1  0
  9 12  1  0
 12 13  1  0
 12 14  1  0
 12 15  1  0
 15 16  1  0
 15 17  1  0
 15 18  1  0
 18 19  1  0
 18 20  1  0
 18 21  1  0
 21 22  1  0
 21 23  1  0
 21 24  1  0
 24 25  1  0
 24 26  1  0
 24 27  1  0
 27 28  1  0
 27 29  1  0
 27 30  1  0
 30 31  1  0
 30 32  1  0
 30 33  1  0
  5 34  1  0
 34 35  1  0
 35 36  1  0
 34 37  1  0
 37 38  1  0
 37 39  1  0
 37 40  1  0
 40 41  1  0
 41 42  2  0
 41 43  1  0
M  CHG  2  37   1  43  -1
M  END
$$$$

     RDKit          2D

 17 16  0  0  0  0  0  0  0  0999 V2000
    0.0000    0.0000    0.0000 C   0  0  0  0  0  0  0  0  0  0  0  0
    1.2990    0.7500    0.0000 N   0  0  0  0  0  0  0  0  0  0  0  0
    2.5981    1.5000    0.0000 C   0  0  0  0  0  0  0  0  0  0  0  0
    2.0490   -0.5490    0.0000 C   0  0  0  0  0  0  0  0  0  0  0  0
    3.5490   -0.5490    0.0000 C   0  0  0  0  0  0  0  0  0  0  0  0
    4.2990   -1.8481    0.0000 C   0  0  0  0  0  0  0  0  0  0  0  0
    5.7990   -1.8481    0.0000 C   0  0  0  0  0  0  0  0  0  0  0  0
    5.7990   -3.3481    0.0000 F   0  0  0  0  0  0  0  0  0  0  0  0
    5.7990   -0.3481    0.0000 F   0  0  0  0  0  0  0  0  0  0  0  0
    7.2990   -1.8481    0.0000 C   0  0  0  0  0  0  0  0  0  0  0  0
    8.7990   -1.8481    0.0000 F   0  0  0  0  0  0  0  0  0  0  0  0
    7.2990   -0.3481    0.0000 F   0  0  0  0  0  0  0  0  0  0  0  0
    7.2990   -3.3481    0.0000 F   0  0  0  0  0  0  0  0  0  0  0  0
    0.5490    2.0490    0.0000 C   0  0  0  0  0  0  0  0  0  0  0  0
    1.2990    3.3481    0.0000 C   0  0  0  0  0  0  0  0  0  0  0  0
    2.7990    3.3481    0.0000 O   0  0  0  0  0  0  0  0  0  0  0  0
    0.5490    4.6471    0.0000 O   0  0  0  0  0  0  0  0  0  0  0  0
  1  2  1  0
  2  3  1  0
  2  4  1  0
  4  5  1  0
  5  6  1  0
  6  7  1  0
  7  8  1  0
  7  9  1  0
  7 10  1  0
 10 11  1  0
 10 12  1  0
 10 13  1  0
  2 14  1  0
 14 15  1  0
 15 16  2  0
 15 17  1  0
M  CHG  2   2   1  17  -1
M  END
$$$$

     RDKit          2D

 23 22  0  0  0  0  0  0  0  0999 V2000
   -2.0490   -0.5490    0.0000 O   0  0  0  0  0  0  0  0  0  0  0  0
   -1.2990    0.7500    0.0000 S   0  0  0  0  0  0  0  0  0  0  0  0
   -0.5490    2.0490    0.0000 O   0  0  0  0  0  0  0  0  0  0  0  0
   -2.5981    1.5000    0.0000 O   0  0  0  0  0  0  0  0  0  0  0  0
    0.0000    0.0000    0.0000 C   0  0  0  0  0  0  0  0  0  0  0  0
    1.2990    0.7500    0.0000 C   0  0  0  0  0  0  0  0  0  0  0  0
    2.5981   -0.0000    0.0000 C   0  0  0  0  0  0  0  0  0  0  0  0
    3.8971    0.7500    0.0000 C   0  0  0  0  0  0  0  0  0  0  0  0
    4.6471   -0.5490    0.0000 F   0  0  0  0  0  0  0  0  0  0  0  0
    3.1471    2.0490    0.0000 F   0  0  0  0  0  0  0  0  0  0  0  0
    5.1962    1.5000    0.0000 C   0  0  0  0  0  0  0  0  0  0  0  0
    4.4462    2.7990    0.0000 F   0  0  0  0  0  0  0  0  0  0  0  0
    5.9462    0.2010    0.0000 F   0  0  0  0  0  0  0  0  0  0  0  0
    6.4952    2.2500    0.0000 C   0  0  0  0  0  0  0  0  0  0  0  0
    7.2452    0.9510    0.0000 F   0  0  0  0  0  0  0  0  0  0  0  0
    5.7452    3.5490    0.0000 F   0  0  0  0  0  0  0  0  0  0  0  0
    7.7942    3.0000    0.0000 C   0  0  0  0  0  0  0  0  0  0  0  0
    7.0442    4.2990    0.0000 F   0  0  0  0  0  0  0  0  0  0  0  0
    8.5442    1.7010    0.0000 F   0  0  0  0  0  0  0  0  0  0  0  0
    9.0933    3.7500    0.0000 C   0  0  0  0  0  0  0  0  0  0  0  0
   10.3923    4.5000    0.0000 F   0  0  0  0  0  0  0  0  0  0  0  0
    9.8433    2.4510    0.0000 F   0  0  0  0  0  0  0  0  0  0  0  0
    8.3433    5.0490    0.0000 F   0  0  0  0  0  0  0  0  0  0  0  0
  1  2  2  0
  2  3  2  0
  2  4  1  0
  2  5  1  0
  5  6  1  0
  6  7  1  0
  7  8  1  0
  8  9  1  0
  8 10  1  0
  8 11  1  0
 11 12  1  0
 11 13  1  0
 11 14  1  0
 14 15  1  0
 14 16  1  0
 14 17  1  0
 17 18  1  0
 17 19  1  0
 17 20  1  0
 20 21  1  0
 20 22  1  0
 20 23  1  0
M  END
$$$$

     RDKit          2D

 22 21  0  0  0  0  0  0  0  0999 V2000
    2.5981   -0.0000    0.0000 O   0  0  0  0  0  0  0  0  0  0  0  0
    1.2990    0.7500    0.0000 C   0  0  0  0  0  0  0  0  0  0  0  0
    0.0000    0.0000    0.0000 C   0  0  0  0  0  0  0  0  0  0  0  0
   -1.2990    0.7500    0.0000 O   0  0  0  0  0  0  0  0  0  0  0  0
    1.2990    2.2500    0.0000 S   0  0  0  0  0  0  0  0  0  0  0  0
    2.5981    3.0000    0.0000 C   0  0  0  0  0  0  0  0  0  0  0  0
    3.8971    2.2500    0.0000 O   0  0  0  0  0  0  0  0  0  0  0  0
    2.5981    4.5000    0.0000 C   0  0  0  0  0  0  0  0  0  0  0  0
    3.8971    5.2500    0.0000 C   0  0  0  0  0  0  0  0  0  0  0  0
    3.8971    6.7500    0.0000 C   0  0  0  0  0  0  0  0  0  0  0  0
    5.3971    6.7500    0.0000 F   0  0  0  0  0  0  0  0  0  0  0  0
    2.3971    6.7500    0.0000 F   0  0  0  0  0  0  0  0  0  0  0  0
    3.8971    8.2500    0.0000 C   0  0  0  0  0  0  0  0  0  0  0  0
    2.3971    8.2500    0.0000 F   0  0  0  0  0  0  0  0  0  0  0  0
    5.3971    8.2500    0.0000 F   0  0  0  0  0  0  0  0  0  0  0  0
    3.8971    9.7500    0.0000 C   0  0  0  0  0  0  0  0  0  0  0  0
    5.3971    9.7500    0.0000 F   0  0  0  0  0  0  0  0  0  0  0  0
    2.3971    9.7500    0.0000 F   0  0  0  0  0  0  0  0  0  0  0  0
    3.8971   11.2500    0.0000 C   0  0  0  0  0  0  0  0  0  0  0  0
    3.8971   12.7500    0.0000 F   0  0  0  0  0  0  0  0  0  0  0  0
    2.3971   11.2500    0.0000 F   0  0  0  0  0  0  0  0  0  0  0  0
    5.3971   11.2500    0.0000 F   0  0  0  0  0  0  0  0  0  0  0  0
  1  2  2  0
  2  3  1  0
  3  4  1  0
  2  5  1  0
  5  6  1  0
  6  7  2  0
  6  8  1  0
  8  9  1  0
  9 10  1  0
 10 11  1  0
 10 12  1  0
 10 13  1  0
 13 14  1  0
 13 15  1  0
 13 16  1  0
 16 17  1  0
 16 18  1  0
 16 19  1  0
 19 20  1  0
 19 21  1  0
 19 22  1  0
M  END
$$$$

     RDKit          2D

 28 27  0  0  0  0  0  0  0  0999 V2000
    2.5981   -0.0000    0.0000 O   0  0  0  0  0  0  0  0  0  0  0  0
    1.2990    0.7500    0.0000 C   0  0  0  0  0  0  0  0  0  0  0  0
    0.0000    0.0000    0.0000 C   0  0  0  0  0  0  0  0  0  0  0  0
   -1.2990    0.7500    0.0000 O   0  0  0  0  0  0  0  0  0  0  0  0
    1.2990    2.2500    0.0000 S   0  0  0  0  0  0  0  0  0  0  0  0
    2.5981    3.0000    0.0000 C   0  0  0  0  0  0  0  0  0  0  0  0
    3.8971    2.2500    0.0000 O   0  0  0  0  0  0  0  0  0  0  0  0
    2.5981    4.5000    0.0000 C   0  0  0  0  0  0  0  0  0  0  0  0
    3.8971    5.2500    0.0000 C   0  0  0  0  0  0  0  0  0  0  0  0
    3.8971    6.7500    0.0000 C   0  0  0  0  0  0  0  0  0  0  0  0
    5.3971    6.7500    0.0000 F   0  0  0  0  0  0  0  0  0  0  0  0
    2.3971    6.7500    0.0000 F   0  0  0  0  0  0  0  0  0  0  0  0
    3.8971    8.2500    0.0000 C   0  0  0  0  0  0  0  0  0  0  0  0
    2.3971    8.2500    0.0000 F   0  0  0  0  0  0  0  0  0  0  0  0
    5.3971    8.2500    0.0000 F   0  0  0  0  0  0  0  0  0  0  0  0
    3.8971    9.7500    0.0000 C   0  0  0  0  0  0  0  0  0  0  0  0
    5.3971    9.7500    0.0000 F   0  0  0  0  0  0  0  0  0  0  0  0
    2.3971    9.7500    0.0000 F   0  0  0  0  0  0  0  0  0  0  0  0
    3.8971   11.2500    0.0000 C   0  0  0  0  0  0  0  0  0  0  0  0
    2.3971   11.2500    0.0000 F   0  0  0  0  0  0  0  0  0  0  0  0
    5.3971   11.2500    0.0000 F   0  0  0  0  0  0  0  0  0  0  0  0
    3.8971   12.7500    0.0000 C   0  0  0  0  0  0  0  0  0  0  0  0
    5.3971   12.7500    0.0000 F   0  0  0  0  0  0  0  0  0  0  0  0
    2.3971   12.7500    0.0000 F   0  0  0  0  0  0  0  0  0  0  0  0
    3.8971   14.2500    0.0000 C   0  0  0  0  0  0  0  0  0  0  0  0
    3.8971   15.7500    0.0000 F   0  0  0  0  0  0  0  0  0  0  0  0
    2.3971   14.2500    0.0000 F   0  0  0  0  0  0  0  0  0  0  0  0
    5.3971   14.2500    0.0000 F   0  0  0  0  0  0  0  0  0  0  0  0
  1  2  2  0
  2  3  1  0
  3  4  1  0
  2  5  1  0
  5  6  1  0
  6  7  2  0
  6  8  1  0
  8  9  1  0
  9 10  1  0
 10 11  1  0
 10 12  1  0
 10 13  1  0
 13 14  1  0
 13 15  1  0
 13 16  1  0
 16 17  1  0
 16 18  1  0
 16 19  1  0
 19 20  1  0
 19 21  1  0
 19 22  1  0
 22 23  1  0
 22 24  1  0
 22 25  1  0
 25 26  1  0
 25 27  1  0
 25 28  1  0
M  END
$$$$

     RDKit          2D

 46 45  0  0  0  0  0  0  0  0999 V2000
    2.5981   -0.0000    0.0000 O   0  0  0  0  0  0  0  0  0  0  0  0
    1.2990    0.7500    0.0000 C   0  0  0  0  0  0  0  0  0  0  0  0
    0.0000    0.0000    0.0000 C   0  0  0  0  0  0  0  0  0  0  0  0
   -1.2990    0.7500    0.0000 O   0  0  0  0  0  0  0  0  0  0  0  0
    1.2990    2.2500    0.0000 S   0  0  0  0  0  0  0  0  0  0  0  0
    2.5981    3.0000    0.0000 C   0  0  0  0  0  0  0  0  0  0  0  0
    3.8971    2.2500    0.0000 O   0  0  0  0  0  0  0  0  0  0  0  0
    2.5981    4.5000    0.0000 C   0  0  0  0  0  0  0  0  0  0  0  0
    3.8971    5.2500    0.0000 C   0  0  0  0  0  0  0  0  0  0  0  0
    3.8971    6.7500    0.0000 C   0  0  0  0  0  0  0  0  0  0  0  0
    5.3971    6.7500    0.0000 F   0  0  0  0  0  0  0  0  0  0  0  0
    2.3971    6.7500    0.0000 F   0  0  0  0  0  0  0  0  0  0  0  0
    3.8971    8.2500    0.0000 C   0  0  0  0  0  0  0  0  0  0  0  0
    2.3971    8.2500    0.0000 F   0  0  0  0  0  0  0  0  0  0  0  0
    5.3971    8.2500    0.0000 F   0  0  0  0  0  0  0  0  0  0  0  0
    3.8971    9.7500    0.0000 C   0  0  0  0  0  0  0  0  0  0  0  0
    5.3971    9.7500    0.0000 F   0  0  0  0  0  0  0  0  0  0  0  0
    2.3971    9.7500    0.0000 F   0  0  0  0  0  0  0  0  0  0  0  0
    3.8971   11.2500    0.0000 C   0  0  0  0  0  0  0  0  0  0  0  0
    2.3971   11.2500    0.0000 F   0  0  0  0  0  0  0  0  0  0  0  0
    5.3971   11.2500    0.0000 F   0  0  0  0  0  0  0  0  0  0  0  0
    3.8971   12.7500    0.0000 C   0  0  0  0  0  0  0  0  0  0  0  0
    5.3971   12.7500    0.0000 F   0  0  0  0  0  0  0  0  0  0  0  0
    2.3971   12.7500    0.0000 F   0  0  0  0  0  0  0  0  0  0  0  0
    3.8971   14.2500    0.0000 C   0  0  0  0  0  0  0  0  0  0  0  0
    2.3971   14.2500    0.0000 F   0  0  0  0  0  0  0  0  0  0  0  0
    5.3971   14.2500    0.0000 F   0  0  0  0  0  0  0  0  0  0  0  0
    3.8971   15.7500    0.0000 C   0  0  0  0  0  0  0  0  0  0  0  0
    5.3971   15.7500    0.0000 F   0  0  0  0  0  0  0  0  0  0  0  0
    2.3971   15.7500    0.0000 F   0  0  0  0  0  0  0  0  0  0  0  0
    3.8971   17.2500    0.0000 C   0  0  0  0  0  0  0  0  0  0  0  0
    2.3971   17.2500    0.0000 F   0  0  0  0  0  0  0  0  0  0  0  0
    5.3971   17.2500    0.0000 F   0  0  0  0  0  0  0  0  0  0  0  0
    3.8971   18.7500    0.0000 C   0  0  0  0  0  0  0  0  0  0  0  0
    5.3971   18.7500    0.0000 F   0  0  0  0  0  0  0  0  0  0  0  0
    2.3971   18.7500    0.0000 F   0  0  0  0  0  0  0  0  0  0  0  0
    3.8971   20.2500    0.0000 C   0  0  0  0  0  0  0  0  0  0  0  0
    2.3971   20.2500    0.0000 F   0  0  0  0  0  0  0  0  0  0  0  0
    5.3971   20.2500    0.0000 F   0  0  0  0  0  0  0  0  0  0  0  0
    3.8971   21.7500    0.0000 C   0  0  0  0  0  0  0  0  0  0  0  0
    5.3971   21.7500    0.0000 F   0  0  0  0  0  0  0  0  0  0  0  0
    2.3971   21.7500    0.0000 F   0  0  0  0  0  0  0  0  0  0  0  0
    3.8971   23.2500    0.0000 C   0  0  0  0  0  0  0  0  0  0  0  0
    3.8971   24.7500    0.0000 F   0  0  0  0  0  0  0  0  0  0  0  0
    2.3971   23.2500    0.0000 F   0  0  0  0  0  0  0  0  0  0  0  0
    5.3971   23.2500    0.0000 F   0  0  0  0  0  0  0  0  0  0  0  0
  1  2  2  0
  2  3  1  0
  3  4  1  0
  2  5  1  0
  5  6  1  0
  6  7  2  0
  6  8  1  0
  8  9  1  0
  9 10  1  0
 10 11  1  0
 10 12  1  0
 10 13  1  0
 13 14  1  0
 13 15  1  0
 13 16  1  0
 16 17  1  0
 16 18  1  0
 16 19  1  0
 19 20  1  0
 19 21  1  0
 19 22  1  0
 22 23  1  0
 22 24  1  0
 22 25  1  0
 25 26  1  0
 25 27  1  0
 25 28  1  0
 28 29  1  0
 28 30  1  0
 28 31  1  0
 31 32  1  0
 31 33  1  0
 31 34  1  0
 34 35  1  0
 34 36  1  0
 34 37  1  0
 37 38  1  0
 37 39  1  0
 37 40  1  0
 40 41  1  0
 40 42  1  0
 40 43  1  0
 43 44  1  0
 43 45  1  0
 43 46  1  0
M  END
$$$$

     RDKit          2D

 40 39  0  0  0  0  0  0  0  0999 V2000
   -2.5981    0.0000    0.0000 O   0  0  0  0  0  0  0  0  0  0  0  0
   -1.2990    0.7500    0.0000 C   0  0  0  0  0  0  0  0  0  0  0  0
    0.0000    0.0000    0.0000 C   0  0  0  0  0  0  0  0  0  0  0  0
    1.2990    0.7500    0.0000 C   0  0  0  0  0  0  0  0  0  0  0  0
    2.5981   -0.0000    0.0000 C   0  0  0  0  0  0  0  0  0  0  0  0
    3.3481    1.2990    0.0000 F   0  0  0  0  0  0  0  0  0  0  0  0
    1.8481   -1.2990    0.0000 F   0  0  0  0  0  0  0  0  0  0  0  0
    3.8971   -0.7500    0.0000 C   0  0  0  0  0  0  0  0  0  0  0  0
    3.1471   -2.0490    0.0000 F   0  0  0  0  0  0  0  0  0  0  0  0
    4.6471    0.5490    0.0000 F   0  0  0  0  0  0  0  0  0  0  0  0
    5.1962   -1.5000    0.0000 C   0  0  0  0  0  0  0  0  0  0  0  0
    5.9462   -0.2010    0.0000 F   0  0  0  0  0  0  0  0  0  0  0  0
    4.4462   -2.7990    0.0000 F   0  0  0  0  0  0  0  0  0  0  0  0
    6.4952   -2.2500    0.0000 C   0  0  0  0  0  0  0  0  0  0  0  0
    5.7452   -3.5490    0.0000 F   0  0  0  0  0  0  0  0  0  0  0  0
    7.2452   -0.9510    0.0000 F   0  0  0  0  0  0  0  0  0  0  0  0
    7.7942   -3.0000    0.0000 C   0  0  0  0  0  0  0  0  0  0  0  0
    8.5442   -1.7010    0.0000 F   0  0  0  0  0  0  0  0  0  0  0  0
    7.0442   -4.2990    0.0000 F   0  0  0  0  0  0  0  0  0  0  0  0
    9.0933   -3.7500    0.0000 C   0  0  0  0  0  0  0  0  0  0  0  0
    8.3433   -5.0490    0.0000 F   0  0  0  0  0  0  0  0  0  0  0  0
    9.8433   -2.4510    0.0000 F   0  0  0  0  0  0  0  0  0  0  0  0
   10.3923   -4.5000    0.0000 C   0  0  0  0  0  0  0  0  0  0  0  0
   11.1423   -3.2010    0.0000 F   0  0  0  0  0  0  0  0  0  0  0  0
    9.6423   -5.7990    0.0000 F   0  0  0  0  0  0  0  0  0  0  0  0
   11.6913   -5.2500    0.0000 C   0  0  0  0  0  0  0  0  0  0  0  0
   10.9413   -6.5490    0.0000 F   0  0  0  0  0  0  0  0  0  0  0  0
   12.4413   -3.9510    0.0000 F   0  0  0  0  0  0  0  0  0  0  0  0
   12.9904   -6.0000    0.0000 C   0  0  0  0  0  0  0  0  0  0  0  0
   14.2894   -6.7500    0.0000 F   0  0  0  0  0  0  0  0  0  0  0  0
   13.7404   -4.7010    0.0000 F   0  0  0  0  0  0  0  0  0  0  0  0
   12.2404   -7.2990    0.0000 F   0  0  0  0  0  0  0  0  0  0  0  0
   -1.2990    2.2500    0.0000 S   0  0  0  0  0  0  0  0  0  0  0  0
   -2.5981    3.0000    0.0000 C   0  0  0  0  0  0  0  0  0  0  0  0
   -3.8971    2.2500    0.0000 O   0  0  0  0  0  0  0  0  0  0  0  0
   -2.5981    4.5000    0.0000 C   0  0  0  0  0  0  0  0  0  0  0  0
   -1.2990    5.2500    0.0000 O   0  0  0  0  0  0  0  0  0  0  0  0
   -3.8971    5.2500    0.0000 C   0  0  0  0  0  0  0  0  0  0  0  0
   -5.1962    4.5000    0.0000 O   0  0  0  0  0  0  0  0  0  0  0  0
   -3.8971    6.7500    0.0000 O   0  0  0  0  0  0  0  0  0  0  0  0
  1  2  2  0
  2  3  1  0
  3  4  1  0
  4  5  1  0
  5  6  1  0
  5  7  1  0
  5  8  1  0
  8  9  1  0
  8 10  1  0
  8 11  1  0
 11 12  1  0
 11 13  1  0
 11 14  1  0
 14 15  1  0
 14 16  1  0
 14 17  1  0
 17 18  1  0
 17 19  1  0
 17 20  1  0
 20 21  1  0
 20 22  1  0
 20 23  1  0
 23 24  1  0
 23 25  1  0
 23 26  1  0
 26 27  1  0
 26 28  1  0
 26 29  1  0
 29 30  1  0
 29 31  1  0
 29 32  1  0
  2 33  1  0
 33 34  1  0
 34 35  2  0
 34 36  1  0
 36 37  1  0
 36 38  1  0
 38 39  2  0
 38 40  1  0
M  END
$$$$

     RDKit          2D

 24 23  0  0  0  0  0  0  0  0999 V2000
   -2.5981    0.0000    0.0000 O   0  0  0  0  0  0  0  0  0  0  0  0
   -1.2990    0.7500    0.0000 C   0  0  0  0  0  0  0  0  0  0  0  0
    0.0000    0.0000    0.0000 C   0  0  0  0  0  0  0  0  0  0  0  0
    1.2990    0.7500    0.0000 C   0  0  0  0  0  0  0  0  0  0  0  0
    2.5981   -0.0000    0.0000 C   0  0  0  0  0  0  0  0  0  0  0  0
    3.3481    1.2990    0.0000 F   0  0  0  0  0  0  0  0  0  0  0  0
    1.8481   -1.2990    0.0000 F   0  0  0  0  0  0  0  0  0  0  0  0
    3.8971   -0.7500    0.0000 C   0  0  0  0  0  0  0  0  0  0  0  0
    3.1471   -2.0490    0.0000 F   0  0  0  0  0  0  0  0  0  0  0  0
    4.6471    0.5490    0.0000 F   0  0  0  0  0  0  0  0  0  0  0  0
    5.1962   -1.5000    0.0000 C   0  0  0  0  0  0  0  0  0  0  0  0
    5.9462   -0.2010    0.0000 F   0  0  0  0  0  0  0  0  0  0  0  0
    4.4462   -2.7990    0.0000 F   0  0  0  0  0  0  0  0  0  0  0  0
    6.4952   -2.2500    0.0000 C   0  0  0  0  0  0  0  0  0  0  0  0
    7.7942   -3.0000    0.0000 F   0  0  0  0  0  0  0  0  0  0  0  0
    5.7452   -3.5490    0.0000 F   0  0  0  0  0  0  0  0  0  0  0  0
    7.2452   -0.9510    0.0000 F   0  0  0  0  0  0  0  0  0  0  0  0
   -1.2990    2.2500    0.0000 S   0  0  0  0  0  0  0  0  0  0  0  0
   -2.5981    3.0000    0.0000 C   0  0  0  0  0  0  0  0  0  0  0  0
   -2.5981    4.5000    0.0000 C   0  0  0  0  0  0  0  0  0  0  0  0
   -1.2990    5.2500    0.0000 O   0  0  0  0  0  0  0  0  0  0  0  0
   -3.8971    5.2500    0.0000 C   0  0  0  0  0  0  0  0  0  0  0  0
   -5.1962    4.5000    0.0000 O   0  0  0  0  0  0  0  0  0  0  0  0
   -3.8971    6.7500    0.0000 O   0  0  0  0  0  0  0  0  0  0  0  0
  1  2  2  0
  2  3  1  0
  3  4  1  0
  4  5  1  0
  5  6  1  0
  5  7  1  0
  5  8  1  0
  8  9  1  0
  8 10  1  0
  8 11  1  0
 11 12  1  0
 11 13  1  0
 11 14  1  0
 14 15  1  0
 14 16  1  0
 14 17  1  0
  2 18  1  0
 18 19  1  0
 19 20  1  0
 20 21  1  0
 20 22  1  0
 22 23  2  0
 22 24  1  0
M  END
$$$$

     RDKit          2D

 30 29  0  0  0  0  0  0  0  0999 V2000
   -2.5981    0.0000    0.0000 O   0  0  0  0  0  0  0  0  0  0  0  0
   -1.2990    0.7500    0.0000 C   0  0  0  0  0  0  0  0  0  0  0  0
    0.0000    0.0000    0.0000 C   0  0  0  0  0  0  0  0  0  0  0  0
    1.2990    0.7500    0.0000 C   0  0  0  0  0  0  0  0  0  0  0  0
    2.5981   -0.0000    0.0000 C   0  0  0  0  0  0  0  0  0  0  0  0
    3.3481    1.2990    0.0000 F   0  0  0  0  0  0  0  0  0  0  0  0
    1.8481   -1.2990    0.0000 F   0  0  0  0  0  0  0  0  0  0  0  0
    3.8971   -0.7500    0.0000 C   0  0  0  0  0  0  0  0  0  0  0  0
    3.1471   -2.0490    0.0000 F   0  0  0  0  0  0  0  0  0  0  0  0
    4.6471    0.5490    0.0000 F   0  0  0  0  0  0  0  0  0  0  0  0
    5.1962   -1.5000    0.0000 C   0  0  0  0  0  0  0  0  0  0  0  0
    5.9462   -0.2010    0.0000 F   0  0  0  0  0  0  0  0  0  0  0  0
    4.4462   -2.7990    0.0000 F   0  0  0  0  0  0  0  0  0  0  0  0
    6.4952   -2.2500    0.0000 C   0  0  0  0  0  0  0  0  0  0  0  0
    5.7452   -3.5490    0.0000 F   0  0  0  0  0  0  0  0  0  0  0  0
    7.2452   -0.9510    0.0000 F   0  0  0  0  0  0  0  0  0  0  0  0
    7.7942   -3.0000    0.0000 C   0  0  0  0  0  0  0  0  0  0  0  0
    8.5442   -1.7010    0.0000 F   0  0  0  0  0  0  0  0  0  0  0  0
    7.0442   -4.2990    0.0000 F   0  0  0  0  0  0  0  0  0  0  0  0
    9.0933   -3.7500    0.0000 C   0  0  0  0  0  0  0  0  0  0  0  0
   10.3923   -4.5000    0.0000 F   0  0  0  0  0  0  0  0  0  0  0  0
    8.3433   -5.0490    0.0000 F   0  0  0  0  0  0  0  0  0  0  0  0
    9.8433   -2.4510    0.0000 F   0  0  0  0  0  0  0  0  0  0  0  0
   -1.2990    2.2500    0.0000 S   0  0  0  0  0  0  0  0  0  0  0  0
   -2.5981    3.0000    0.0000 C   0  0  0  0  0  0  0  0  0  0  0  0
   -2.5981    4.5000    0.0000 C   0  0  0  0  0  0  0  0  0  0  0  0
   -1.2990    5.2500    0.0000 O   0  0  0  0  0  0  0  0  0  0  0  0
   -3.8971    5.2500    0.0000 C   0  0  0  0  0  0  0  0  0  0  0  0
   -5.1962    4.5000    0.0000 O   0  0  0  0  0  0  0  0  0  0  0  0
   -3.8971    6.7500    0.0000 O   0  0  0  0  0  0  0  0  0  0  0  0
  1  2  2  0
  2  3  1  0
  3  4  1  0
  4  5  1  0
  5  6  1  0
  5  7  1  0
  5  8  1  0
  8  9  1  0
  8 10  1  0
  8 11  1  0
 11 12  1  0
 11 13  1  0
 11 14  1  0
 14 15  1  0
 14 16  1  0
 14 17  1  0
 17 18  1  0
 17 19  1  0
 17 20  1  0
 20 21  1  0
 20 22  1  0
 20 23  1  0
  2 24  1  0
 24 25  1  0
 25 26  1  0
 26 27  1  0
 26 28  1  0
 28 29  2  0
 28 30  1  0
M  END
$$$$

     RDKit          2D

 57 56  0  0  0  0  0  0  0  0999 V2000
    1.2990   -2.2500    0.0000 C   0  0  0  0  0  0  0  0  0  0  0  0
    2.5981   -1.5000    0.0000 C   0  0  0  0  0  0  0  0  0  0  0  0
    3.8971   -2.2500    0.0000 O   0  0  0  0  0  0  0  0  0  0  0  0
    2.5981   -0.0000    0.0000 O   0  0  0  0  0  0  0  0  0  0  0  0
    3.8971    0.7500    0.0000 C   0  0  0  0  0  0  0  0  0  0  0  0
    5.1962   -0.0000    0.0000 C   0  0  0  0  0  0  0  0  0  0  0  0
    6.4952    0.7500    0.0000 C   0  0  0  0  0  0  0  0  0  0  0  0
    7.2452   -0.5490    0.0000 F   0  0  0  0  0  0  0  0  0  0  0  0
    5.7452    2.0490    0.0000 F   0  0  0  0  0  0  0  0  0  0  0  0
    7.7942    1.5000    0.0000 C   0  0  0  0  0  0  0  0  0  0  0  0
    8.5442    0.2010    0.0000 F   0  0  0  0  0  0  0  0  0  0  0  0
    7.0442    2.7990    0.0000 F   0  0  0  0  0  0  0  0  0  0  0  0
    9.0933    2.2500    0.0000 C   0  0  0  0  0  0  0  0  0  0  0  0
    9.8433    0.9510    0.0000 F   0  0  0  0  0  0  0  0  0  0  0  0
    8.3433    3.5490    0.0000 F   0  0  0  0  0  0  0  0  0  0  0  0
   10.3923    3.0000    0.0000 C   0  0  0  0  0  0  0  0  0  0  0  0
    9.6423    4.2990    0.0000 F   0  0  0  0  0  0  0  0  0  0  0  0
   11.1423    1.7010    0.0000 F   0  0  0  0  0  0  0  0  0  0  0  0
   11.6913    3.7500    0.0000 C   0  0  0  0  0  0  0  0  0  0  0  0
   12.4413    2.4510    0.0000 F   0  0  0  0  0  0  0  0  0  0  0  0
   10.9413    5.0490    0.0000 F   0  0  0  0  0  0  0  0  0  0  0  0
   12.9904    4.5000    0.0000 C   0  0  0  0  0  0  0  0  0  0  0  0
   12.2404    5.7990    0.0000 F   0  0  0  0  0  0  0  0  0  0  0  0
   13.7404    3.2010    0.0000 F   0  0  0  0  0  0  0  0  0  0  0  0
   14.2894    5.2500    0.0000 C   0  0  0  0  0  0  0  0  0  0  0  0
   15.0394    3.9510    0.0000 F   0  0  0  0  0  0  0  0  0  0  0  0
   13.5394    6.5490    0.0000 F   0  0  0  0  0  0  0  0  0  0  0  0
   15.5885    6.0000    0.0000 C   0  0  0  0  0  0  0  0  0  0  0  0
   14.8385    7.2990    0.0000 F   0  0  0  0  0  0  0  0  0  0  0  0
   16.3385    4.7010    0.0000 F   0  0  0  0  0  0  0  0  0  0  0  0
   16.8875    6.7500    0.0000 C   0  0  0  0  0  0  0  0  0  0  0  0
   17.6375    5.4510    0.0000 F   0  0  0  0  0  0  0  0  0  0  0  0
   16.1375    8.0490    0.0000 F   0  0  0  0  0  0  0  0  0  0  0  0
   18.1865    7.5000    0.0000 C   0  0  0  0  0  0  0  0  0  0  0  0
   17.4365    8.7990    0.0000 F   0  0  0  0  0  0  0  0  0  0  0  0
   18.9365    6.2010    0.0000 F   0  0  0  0  0  0  0  0  0  0  0  0
   19.4856    8.2500    0.0000 C   0  0  0  0  0  0  0  0  0  0  0  0
   20.2356    6.9510    0.0000 F   0  0  0  0  0  0  0  0  0  0  0  0
   18.7356    9.5490    0.0000 F   0  0  0  0  0  0  0  0  0  0  0  0
   20.7846    9.0000    0.0000 C   0  0  0  0  0  0  0  0  0  0  0  0
   20.0346   10.2990    0.0000 F   0  0  0  0  0  0  0  0  0  0  0  0
   21.5346    7.7010    0.0000 F   0  0  0  0  0  0  0  0  0  0  0  0
   22.0836    9.7500    0.0000 C   0  0  0  0  0  0  0  0  0  0  0  0
   22.8336    8.4510    0.0000 F   0  0  0  0  0  0  0  0  0  0  0  0
   21.3336   11.0490    0.0000 F   0  0  0  0  0  0  0  0  0  0  0  0
   23.3827   10.5000    0.0000 C   0  0  0  0  0  0  0  0  0  0  0  0
   24.6817   11.2500    0.0000 F   0  0  0  0  0  0  0  0  0  0  0  0
   22.6327   11.7990    0.0000 F   0  0  0  0  0  0  0  0  0  0  0  0
   24.1327    9.2010    0.0000 F   0  0  0  0  0  0  0  0  0  0  0  0
    3.8971    2.2500    0.0000 C   0  0  0  0  0  0  0  0  0  0  0  0
    2.5981    3.0000    0.0000 N   0  0  0  0  0  0  0  0  0  0  0  0
    1.8481    1.7010    0.0000 C   0  0  0  0  0  0  0  0  0  0  0  0
    3.3481    4.2990    0.0000 C   0  0  0  0  0  0  0  0  0  0  0  0
    1.2990    3.7500    0.0000 C   0  0  0  0  0  0  0  0  0  0  0  0
    1.2990    5.2500    0.0000 C   0  0  0  0  0  0  0  0  0  0  0  0
    2.5981    6.0000    0.0000 O   0  0  0  0  0  0  0  0  0  0  0  0
    0.0000    6.0000    0.0000 O   0  0  0  0  0  0  0  0  0  0  0  0
  1  2  1  0
  2  3  2  0
  2  4  1  0
  4  5  1  0
  5  6  1  0
  6  7  1  0
  7  8  1  0
  7  9  1  0
  7 10  1  0
 10 11  1  0
 10 12  1  0
 10 13  1  0
 13 14  1  0
 13 15  1  0
 13 16  1  0
 16 17  1  0
 16 18  1  0
 16 19  1  0
 19 20  1  0
 19 21  1  0
 19 22  1  0
 22 23  1  0
 22 24  1  0
 22 25  1  0
 25 26  1  0
 25 27  1  0
 25 28  1  0
 28 29  1  0
 28 30  1  0
 28 31  1  0
 31 32  1  0
 31 33  1  0
 31 34  1  0
 34 35  1  0
 34 36  1  0
 34 37  1  0
 37 38  1  0
 37 39  1  0
 37 40  1  0
 40 41  1  0
 40 42  1  0
 40 43  1  0
 43 44  1  0
 43 45  1  0
 43 46  1  0
 46 47  1  0
 46 48  1  0
 46 49  1  0
  5 50  1  0
 50 51  1  0
 51 52  1  0
 51 53  1  0
 51 54  1  0
 54 55  1  0
 55 56  2  0
 55 57  1  0
M  CHG  2  51   1  57  -1
M  END
$$$$

     RDKit          2D

 60 59  0  0  0  0  0  0  0  0999 V2000
    0.0000    0.0000    0.0000 C   0  0  0  0  0  0  0  0  0  0  0  0
    1.2990    0.7500    0.0000 C   0  0  0  0  0  0  0  0  0  0  0  0
    1.2990    2.2500    0.0000 O   0  0  0  0  0  0  0  0  0  0  0  0
    2.5981   -0.0000    0.0000 O   0  0  0  0  0  0  0  0  0  0  0  0
    3.8971    0.7500    0.0000 C   0  0  0  0  0  0  0  0  0  0  0  0
    5.1962   -0.0000    0.0000 C   0  0  0  0  0  0  0  0  0  0  0  0
    6.4952    0.7500    0.0000 C   0  0  0  0  0  0  0  0  0  0  0  0
    7.7942   -0.0000    0.0000 O   0  0  0  0  0  0  0  0  0  0  0  0
    5.1962   -1.5000    0.0000 C   0  0  0  0  0  0  0  0  0  0  0  0
    6.6962   -1.5000    0.0000 F   0  0  0  0  0  0  0  0  0  0  0  0
    3.6962   -1.5000    0.0000 F   0  0  0  0  0  0  0  0  0  0  0  0
    5.1962   -3.0000    0.0000 C   0  0  0  0  0  0  0  0  0  0  0  0
    3.6962   -3.0000    0.0000 F   0  0  0  0  0  0  0  0  0  0  0  0
    6.6962   -3.0000    0.0000 F   0  0  0  0  0  0  0  0  0  0  0  0
    5.1962   -4.5000    0.0000 C   0  0  0  0  0  0  0  0  0  0  0  0
    6.6962   -4.5000    0.0000 F   0  0  0  0  0  0  0  0  0  0  0  0
    3.6962   -4.5000    0.0000 F   0  0  0  0  0  0  0  0  0  0  0  0
    5.1962   -6.0000    0.0000 C   0  0  0  0  0  0  0  0  0  0  0  0
    3.6962   -6.0000    0.0000 F   0  0  0  0  0  0  0  0  0  0  0  0
    6.6962   -6.0000    0.0000 F   0  0  0  0  0  0  0  0  0  0  0  0
    5.1962   -7.5000    0.0000 C   0  0  0  0  0  0  0  0  0  0  0  0
    6.6962   -7.5000    0.0000 F   0  0  0  0  0  0  0  0  0  0  0  0
    3.6962   -7.5000    0.0000 F   0  0  0  0  0  0  0  0  0  0  0  0
    5.1962   -9.0000    0.0000 C   0  0  0  0  0  0  0  0  0  0  0  0
    3.6962   -9.0000    0.0000 F   0  0  0  0  0  0  0  0  0  0  0  0
    6.6962   -9.0000    0.0000 F   0  0  0  0  0  0  0  0  0  0  0  0
    5.1962  -10.5000    0.0000 C   0  0  0  0  0  0  0  0  0  0  0  0
    6.6962  -10.5000    0.0000 F   0  0  0  0  0  0  0  0  0  0  0  0
    3.6962  -10.5000    0.0000 F   0  0  0  0  0  0  0  0  0  0  0  0
    5.1962  -12.0000    0.0000 C   0  0  0  0  0  0  0  0  0  0  0  0
    3.6962  -12.0000    0.0000 F   0  0  0  0  0  0  0  0  0  0  0  0
    6.6962  -12.0000    0.0000 F   0  0  0  0  0  0  0  0  0  0  0  0
    5.1962  -13.5000    0.0000 C   0  0  0  0  0  0  0  0  0  0  0  0
    6.6962  -13.5000    0.0000 F   0  0  0  0  0  0  0  0  0  0  0  0
    3.6962  -13.5000    0.0000 F   0  0  0  0  0  0  0  0  0  0  0  0
    5.1962  -15.0000    0.0000 C   0  0  0  0  0  0  0  0  0  0  0  0
    3.6962  -15.0000    0.0000 F   0  0  0  0  0  0  0  0  0  0  0  0
    6.6962  -15.0000    0.0000 F   0  0  0  0  0  0  0  0  0  0  0  0
    5.1962  -16.5000    0.0000 C   0  0  0  0  0  0  0  0  0  0  0  0
    6.6962  -16.5000    0.0000 F   0  0  0  0  0  0  0  0  0  0  0  0
    3.6962  -16.5000    0.0000 F   0  0  0  0  0  0  0  0  0  0  0  0
    5.1962  -18.0000    0.0000 C   0  0  0  0  0  0  0  0  0  0  0  0
    3.6962  -18.0000    0.0000 F   0  0  0  0  0  0  0  0  0  0  0  0
    6.6962  -18.0000    0.0000 F   0  0  0  0  0  0  0  0  0  0  0  0
    5.1962  -19.5000    0.0000 C   0  0  0  0  0  0  0  0  0  0  0  0
    6.6962  -19.5000    0.0000 F   0  0  0  0  0  0  0  0  0  0  0  0
    3.6962  -19.5000    0.0000 F   0  0  0  0  0  0  0  0  0  0  0  0
    5.1962  -21.0000    0.0000 C   0  0  0  0  0  0  0  0  0  0  0  0
    5.1962  -22.5000    0.0000 F   0  0  0  0  0  0  0  0  0  0  0  0
    3.6962  -21.0000    0.0000 F   0  0  0  0  0  0  0  0  0  0  0  0
    6.6962  -21.0000    0.0000 F   0  0  0  0  0  0  0  0  0  0  0  0
    3.8971    2.2500    0.0000 C   0  0  0  0  0  0  0  0  0  0  0  0
    2.5981    3.0000    0.0000 O   0  0  0  0  0  0  0  0  0  0  0  0
    5.1962    3.0000    0.0000 N   0  0  0  0  0  0  0  0  0  0  0  0
    4.4462    4.2990    0.0000 C   0  0  0  0  0  0  0  0  0  0  0  0
    5.9462    1.7010    0.0000 C   0  0  0  0  0  0  0  0  0  0  0  0
    6.4952    3.7500    0.0000 C   0  0  0  0  0  0  0  0  0  0  0  0
    7.7942    3.0000    0.0000 C   0  0  0  0  0  0  0  0  0  0  0  0
    7.7942    1.5000    0.0000 O   0  0  0  0  0  0  0  0  0  0  0  0
    9.0933    3.7500    0.0000 O   0  0  0  0  0  0  0  0  0  0  0  0
  1  2  1  0
  2  3  2  0
  2  4  1  0
  4  5  1  0
  5  6  1  0
  6  7  1  0
  7  8  1  0
  6  9  1  0
  9 10  1  0
  9 11  1  0
  9 12  1  0
 12 13  1  0
 12 14  1  0
 12 15  1  0
 15 16  1  0
 15 17  1  0
 15 18  1  0
 18 19  1  0
 18 20  1  0
 18 21  1  0
 21 22  1  0
 21 23  1  0
 21 24  1  0
 24 25  1  0
 24 26  1  0
 24 27  1  0
 27 28  1  0
 27 29  1  0
 27 30  1  0
 30 31  1  0
 30 32  1  0
 30 33  1  0
 33 34  1  0
 33 35  1  0
 33 36  1  0
 36 37  1  0
 36 38  1  0
 36 39  1  0
 39 40  1  0
 39 41  1  0
 39 42  1  0
 42 43  1  0
 42 44  1  0
 42 45  1  0
 45 46  1  0
 45 47  1  0
 45 48  1  0
 48 49  1  0
 48 50  1  0
 48 51  1  0
  5 52  1  0
 52 53  1  0
 52 54  1  0
 54 55  1  0
 54 56  1  0
 54 57  1  0
 57 58  1  0
 58 59  2  0
 58 60  1  0
M  CHG  2  54   1  60  -1
M  END
$$$$

     RDKit          2D

 49 48  0  0  0  0  0  0  0  0999 V2000
    0.0000    0.0000    0.0000 C   0  0  0  0  0  0  0  0  0  0  0  0
    1.2990    0.7500    0.0000 N   0  0  0  0  0  0  0  0  0  0  0  0
    2.5981    1.5000    0.0000 C   0  0  0  0  0  0  0  0  0  0  0  0
    0.5490    2.0490    0.0000 C   0  0  0  0  0  0  0  0  0  0  0  0
    1.2990    3.3481    0.0000 C   0  0  0  0  0  0  0  0  0  0  0  0
    0.5490    4.6471    0.0000 O   0  0  0  0  0  0  0  0  0  0  0  0
    2.0490   -0.5490    0.0000 C   0  0  0  0  0  0  0  0  0  0  0  0
    3.5490   -0.5490    0.0000 C   0  0  0  0  0  0  0  0  0  0  0  0
    4.2990   -1.8481    0.0000 C   0  0  0  0  0  0  0  0  0  0  0  0
    5.7990   -1.8481    0.0000 C   0  0  0  0  0  0  0  0  0  0  0  0
    5.7990   -3.3481    0.0000 F   0  0  0  0  0  0  0  0  0  0  0  0
    5.7990   -0.3481    0.0000 F   0  0  0  0  0  0  0  0  0  0  0  0
    7.2990   -1.8481    0.0000 C   0  0  0  0  0  0  0  0  0  0  0  0
    7.2990   -3.3481    0.0000 F   0  0  0  0  0  0  0  0  0  0  0  0
    7.2990   -0.3481    0.0000 F   0  0  0  0  0  0  0  0  0  0  0  0
    8.7990   -1.8481    0.0000 C   0  0  0  0  0  0  0  0  0  0  0  0
    8.7990   -0.3481    0.0000 F   0  0  0  0  0  0  0  0  0  0  0  0
    8.7990   -3.3481    0.0000 F   0  0  0  0  0  0  0  0  0  0  0  0
   10.2990   -1.8481    0.0000 C   0  0  0  0  0  0  0  0  0  0  0  0
   10.2990   -3.3481    0.0000 F   0  0  0  0  0  0  0  0  0  0  0  0
   10.2990   -0.3481    0.0000 F   0  0  0  0  0  0  0  0  0  0  0  0
   11.7990   -1.8481    0.0000 C   0  0  0  0  0  0  0  0  0  0  0  0
   11.7990   -0.3481    0.0000 F   0  0  0  0  0  0  0  0  0  0  0  0
   11.7990   -3.3481    0.0000 F   0  0  0  0  0  0  0  0  0  0  0  0
   13.2990   -1.8481    0.0000 C   0  0  0  0  0  0  0  0  0  0  0  0
   13.2990   -3.3481    0.0000 F   0  0  0  0  0  0  0  0  0  0  0  0
   13.2990   -0.3481    0.0000 F   0  0  0  0  0  0  0  0  0  0  0  0
   14.7990   -1.8481    0.0000 C   0  0  0  0  0  0  0  0  0  0  0  0
   14.7990   -0.3481    0.0000 F   0  0  0  0  0  0  0  0  0  0  0  0
   14.7990   -3.3481    0.0000 F   0  0  0  0  0  0  0  0  0  0  0  0
   16.2990   -1.8481    0.0000 C   0  0  0  0  0  0  0  0  0  0  0  0
   16.2990   -3.3481    0.0000 F   0  0  0  0  0  0  0  0  0  0  0  0
   16.2990   -0.3481    0.0000 F   0  0  0  0  0  0  0  0  0  0  0  0
   17.7990   -1.8481    0.0000 C   0  0  0  0  0  0  0  0  0  0  0  0
   17.7990   -0.3481    0.0000 F   0  0  0  0  0  0  0  0  0  0  0  0
   17.7990   -3.3481    0.0000 F   0  0  0  0  0  0  0  0  0  0  0  0
   19.2990   -1.8481    0.0000 C   0  0  0  0  0  0  0  0  0  0  0  0
   19.2990   -3.3481    0.0000 F   0  0  0  0  0  0  0  0  0  0  0  0
   19.2990   -0.3481    0.0000 F   0  0  0  0  0  0  0  0  0  0  0  0
   20.7990   -1.8481    0.0000 C   0  0  0  0  0  0  0  0  0  0  0  0
   20.7990   -0.3481    0.0000 F   0  0  0  0  0  0  0  0  0  0  0  0
   20.7990   -3.3481    0.0000 F   0  0  0  0  0  0  0  0  0  0  0  0
   22.2990   -1.8481    0.0000 C   0  0  0  0  0  0  0  0  0  0  0  0
   23.7990   -1.8481    0.0000 F   0  0  0  0  0  0  0  0  0  0  0  0
   22.2990   -3.3481    0.0000 F   0  0  0  0  0  0  0  0  0  0  0  0
   22.2990   -0.3481    0.0000 F   0  0  0  0  0  0  0  0  0  0  0  0
    4.2990    0.7500    0.0000 O   0  0  0  0  0  0  0  0  0  0  0  0
    5.7990    0.7500    0.0000 C   0  0  0  0  0  0  0  0  0  0  0  0
    6.5490    2.0490    0.0000 O   0  0  0  0  0  0  0  0  0  0  0  0
  1  2  1  0
  2  3  1  0
  2  4  1  0
  4  5  1  0
  5  6  2  0
  2  7  1  0
  7  8  1  0
  8  9  1  0
  9 10  1  0
 10 11  1  0
 10 12  1  0
 10 13  1  0
 13 14  1  0
 13 15  1  0
 13 16  1  0
 16 17  1  0
 16 18  1  0
 16 19  1  0
 19 20  1  0
 19 21  1  0
 19 22  1  0
 22 23  1  0
 22 24  1  0
 22 25  1  0
 25 26  1  0
 25 27  1  0
 25 28  1  0
 28 29  1  0
 28 30  1  0
 28 31  1  0
 31 32  1  0
 31 33  1  0
 31 34  1  0
 34 35  1  0
 34 36  1  0
 34 37  1  0
 37 38  1  0
 37 39  1  0
 37 40  1  0
 40 41  1  0
 40 42  1  0
 40 43  1  0
 43 44  1  0
 43 45  1  0
 43 46  1  0
  8 47  1  0
 47 48  1  0
 48 49  2  0
M  CHG  1   2   1
M  END
$$$$

     RDKit          2D

 13 12  0  0  0  0  0  0  0  0999 V2000
    0.0000    0.0000    0.0000 C   0  0  0  0  0  0  0  0  0  0  0  0
    1.2990    0.7500    0.0000 N   0  0  0  0  0  0  0  0  0  0  0  0
    2.5981   -0.0000    0.0000 C   0  0  0  0  0  0  0  0  0  0  0  0
    3.8971    0.7500    0.0000 C   0  0  0  0  0  0  0  0  0  0  0  0
    3.8971    2.2500    0.0000 O   0  0  0  0  0  0  0  0  0  0  0  0
    5.1962   -0.0000    0.0000 C   0  0  0  0  0  0  0  0  0  0  0  0
    6.4952    0.7500    0.0000 C   0  0  0  0  0  0  0  0  0  0  0  0
    7.2452   -0.5490    0.0000 F   0  0  0  0  0  0  0  0  0  0  0  0
    5.7452    2.0490    0.0000 F   0  0  0  0  0  0  0  0  0  0  0  0
    7.7942    1.5000    0.0000 C   0  0  0  0  0  0  0  0  0  0  0  0
    9.0933    2.2500    0.0000 F   0  0  0  0  0  0  0  0  0  0  0  0
    7.0442    2.7990    0.0000 F   0  0  0  0  0  0  0  0  0  0  0  0
    8.5442    0.2010    0.0000 F   0  0  0  0  0  0  0  0  0  0  0  0
  1  2  1  0
  2  3  1  0
  3  4  1  0
  4  5  1  0
  4  6  1  0
  6  7  1  0
  7  8  1  0
  7  9  1  0
  7 10  1  0
 10 11  1  0
 10 12  1  0
 10 13  1  0
M  END
$$$$

     RDKit          2D

 49 48  0  0  0  0  0  0  0  0999 V2000
    0.0000    0.0000    0.0000 C   0  0  0  0  0  0  0  0  0  0  0  0
    1.2990    0.7500    0.0000 N   0  0  0  0  0  0  0  0  0  0  0  0
    2.5981   -0.0000    0.0000 C   0  0  0  0  0  0  0  0  0  0  0  0
    3.8971    0.7500    0.0000 C   0  0  0  0  0  0  0  0  0  0  0  0
    3.8971    2.2500    0.0000 O   0  0  0  0  0  0  0  0  0  0  0  0
    5.1962   -0.0000    0.0000 C   0  0  0  0  0  0  0  0  0  0  0  0
    6.4952    0.7500    0.0000 C   0  0  0  0  0  0  0  0  0  0  0  0
    7.2452   -0.5490    0.0000 F   0  0  0  0  0  0  0  0  0  0  0  0
    5.7452    2.0490    0.0000 F   0  0  0  0  0  0  0  0  0  0  0  0
    7.7942    1.5000    0.0000 C   0  0  0  0  0  0  0  0  0  0  0  0
    7.0442    2.7990    0.0000 F   0  0  0  0  0  0  0  0  0  0  0  0
    8.5442    0.2010    0.0000 F   0  0  0  0  0  0  0  0  0  0  0  0
    9.0933    2.2500    0.0000 C   0  0  0  0  0  0  0  0  0  0  0  0
    9.8433    0.9510    0.0000 F   0  0  0  0  0  0  0  0  0  0  0  0
    8.3433    3.5490    0.0000 F   0  0  0  0  0  0  0  0  0  0  0  0
   10.3923    3.0000    0.0000 C   0  0  0  0  0  0  0  0  0  0  0  0
    9.6423    4.2990    0.0000 F   0  0  0  0  0  0  0  0  0  0  0  0
   11.1423    1.7010    0.0000 F   0  0  0  0  0  0  0  0  0  0  0  0
   11.6913    3.7500    0.0000 C   0  0  0  0  0  0  0  0  0  0  0  0
   12.4413    2.4510    0.0000 F   0  0  0  0  0  0  0  0  0  0  0  0
   10.9413    5.0490    0.0000 F   0  0  0  0  0  0  0  0  0  0  0  0
   12.9904    4.5000    0.0000 C   0  0  0  0  0  0  0  0  0  0  0  0
   12.2404    5.7990    0.0000 F   0  0  0  0  0  0  0  0  0  0  0  0
   13.7404    3.2010    0.0000 F   0  0  0  0  0  0  0  0  0  0  0  0
   14.2894    5.2500    0.0000 C   0  0  0  0  0  0  0  0  0  0  0  0
   15.0394    3.9510    0.0000 F   0  0  0  0  0  0  0  0  0  0  0  0
   13.5394    6.5490    0.0000 F   0  0  0  0  0  0  0  0  0  0  0  0
   15.5885    6.0000    0.0000 C   0  0  0  0  0  0  0  0  0  0  0  0
   14.8385    7.2990    0.0000 F   0  0  0  0  0  0  0  0  0  0  0  0
   16.3385    4.7010    0.0000 F   0  0  0  0  0  0  0  0  0  0  0  0
   16.8875    6.7500    0.0000 C   0  0  0  0  0  0  0  0  0  0  0  0
   17.6375    5.4510    0.0000 F   0  0  0  0  0  0  0  0  0  0  0  0
   16.1375    8.0490    0.0000 F   0  0  0  0  0  0  0  0  0  0  0  0
   18.1865    7.5000    0.0000 C   0  0  0  0  0  0  0  0  0  0  0  0
   17.4365    8.7990    0.0000 F   0  0  0  0  0  0  0  0  0  0  0  0
   18.9365    6.2010    0.0000 F   0  0  0  0  0  0  0  0  0  0  0  0
   19.4856    8.2500    0.0000 C   0  0  0  0  0  0  0  0  0  0  0  0
   20.2356    6.9510    0.0000 F   0  0  0  0  0  0  0  0  0  0  0  0
   18.7356    9.5490    0.0000 F   0  0  0  0  0  0  0  0  0  0  0  0
   20.7846    9.0000    0.0000 C   0  0  0  0  0  0  0  0  0  0  0  0
   20.0346   10.2990    0.0000 F   0  0  0  0  0  0  0  0  0  0  0  0
   21.5346    7.7010    0.0000 F   0  0  0  0  0  0  0  0  0  0  0  0
   22.0836    9.7500    0.0000 C   0  0  0  0  0  0  0  0  0  0  0  0
   22.8336    8.4510    0.0000 F   0  0  0  0  0  0  0  0  0  0  0  0
   21.3336   11.0490    0.0000 F   0  0  0  0  0  0  0  0  0  0  0  0
   23.3827   10.5000    0.0000 C   0  0  0  0  0  0  0  0  0  0  0  0
   24.6817   11.2500    0.0000 F   0  0  0  0  0  0  0  0  0  0  0  0
   22.6327   11.7990    0.0000 F   0  0  0  0  0  0  0  0  0  0  0  0
   24.1327    9.2010    0.0000 F   0  0  0  0  0  0  0  0  0  0  0  0
  1  2  1  0
  2  3  1  0
  3  4  1  0
  4  5  1  0
  4  6  1  0
  6  7  1  0
  7  8  1  0
  7  9  1  0
  7 10  1  0
 10 11  1  0
 10 12  1  0
 10 13  1  0
 13 14  1  0
 13 15  1  0
 13 16  1  0
 16 17  1  0
 16 18  1  0
 16 19  1  0
 19 20  1  0
 19 21  1  0
 19 22  1  0
 22 23  1  0
 22 24  1  0
 22 25  1  0
 25 26  1  0
 25 27  1  0
 25 28  1  0
 28 29  1  0
 28 30  1  0
 28 31  1  0
 31 32  1  0
 31 33  1  0
 31 34  1  0
 34 35  1  0
 34 36  1  0
 34 37  1  0
 37 38  1  0
 37 39  1  0
 37 40  1  0
 40 41  1  0
 40 42  1  0
 40 43  1  0
 43 44  1  0
 43 45  1  0
 43 46  1  0
 46 47  1  0
 46 48  1  0
 46 49  1  0
M  END
$$$$

     RDKit          2D

 19 18  0  0  0  0  0  0  0  0999 V2000
    0.0000    0.0000    0.0000 C   0  0  0  0  0  0  0  0  0  0  0  0
    1.2990    0.7500    0.0000 N   0  0  0  0  0  0  0  0  0  0  0  0
    2.5981    1.5000    0.0000 C   0  0  0  0  0  0  0  0  0  0  0  0
    2.0490   -0.5490    0.0000 C   0  0  0  0  0  0  0  0  0  0  0  0
    3.5490   -0.5490    0.0000 C   0  0  0  0  0  0  0  0  0  0  0  0
    4.2990   -1.8481    0.0000 C   0  0  0  0  0  0  0  0  0  0  0  0
    3.5490   -3.1471    0.0000 O   0  0  0  0  0  0  0  0  0  0  0  0
    5.7990   -1.8481    0.0000 O   0  0  0  0  0  0  0  0  0  0  0  0
    0.5490    2.0490    0.0000 C   0  0  0  0  0  0  0  0  0  0  0  0
    1.2990    3.3481    0.0000 C   0  0  0  0  0  0  0  0  0  0  0  0
    2.7990    3.3481    0.0000 O   0  0  0  0  0  0  0  0  0  0  0  0
    0.5490    4.6471    0.0000 C   0  0  0  0  0  0  0  0  0  0  0  0
    1.2990    5.9462    0.0000 C   0  0  0  0  0  0  0  0  0  0  0  0
    0.0000    6.6962    0.0000 F   0  0  0  0  0  0  0  0  0  0  0  0
    2.5981    5.1962    0.0000 F   0  0  0  0  0  0  0  0  0  0  0  0
    2.0490    7.2452    0.0000 C   0  0  0  0  0  0  0  0  0  0  0  0
    2.7990    8.5442    0.0000 F   0  0  0  0  0  0  0  0  0  0  0  0
    3.3481    6.4952    0.0000 F   0  0  0  0  0  0  0  0  0  0  0  0
    0.7500    7.9952    0.0000 F   0  0  0  0  0  0  0  0  0  0  0  0
  1  2  1  0
  2  3  1  0
  2  4  1  0
  4  5  1  0
  5  6  1  0
  6  7  2  0
  6  8  1  0
  2  9  1  0
  9 10  1  0
 10 11  1  0
 10 12  1  0
 12 13  1  0
 13 14  1  0
 13 15  1  0
 13 16  1  0
 16 17  1  0
 16 18  1  0
 16 19  1  0
M  CHG  1   2   1
M  END
$$$$

     RDKit          2D

 60 59  0  0  0  0  0  0  0  0999 V2000
    0.0000    0.0000    0.0000 C   0  0  0  0  0  0  0  0  0  0  0  0
    1.2990    0.7500    0.0000 N   0  0  0  0  0  0  0  0  0  0  0  0
    2.5981    1.5000    0.0000 C   0  0  0  0  0  0  0  0  0  0  0  0
    0.5490    2.0490    0.0000 C   0  0  0  0  0  0  0  0  0  0  0  0
    1.2990    3.3481    0.0000 C   0  0  0  0  0  0  0  0  0  0  0  0
    2.7990    3.3481    0.0000 O   0  0  0  0  0  0  0  0  0  0  0  0
    0.5490    4.6471    0.0000 O   0  0  0  0  0  0  0  0  0  0  0  0
    2.0490   -0.5490    0.0000 C   0  0  0  0  0  0  0  0  0  0  0  0
    3.5490   -0.5490    0.0000 C   0  0  0  0  0  0  0  0  0  0  0  0
    4.2990    0.7500    0.0000 O   0  0  0  0  0  0  0  0  0  0  0  0
    4.2990   -1.8481    0.0000 C   0  0  0  0  0  0  0  0  0  0  0  0
    5.7990   -1.8481    0.0000 C   0  0  0  0  0  0  0  0  0  0  0  0
    5.7990   -3.3481    0.0000 F   0  0  0  0  0  0  0  0  0  0  0  0
    5.7990   -0.3481    0.0000 F   0  0  0  0  0  0  0  0  0  0  0  0
    7.2990   -1.8481    0.0000 C   0  0  0  0  0  0  0  0  0  0  0  0
    7.2990   -0.3481    0.0000 F   0  0  0  0  0  0  0  0  0  0  0  0
    7.2990   -3.3481    0.0000 F   0  0  0  0  0  0  0  0  0  0  0  0
    8.7990   -1.8481    0.0000 C   0  0  0  0  0  0  0  0  0  0  0  0
    8.7990   -3.3481    0.0000 F   0  0  0  0  0  0  0  0  0  0  0  0
    8.7990   -0.3481    0.0000 F   0  0  0  0  0  0  0  0  0  0  0  0
   10.2990   -1.8481    0.0000 C   0  0  0  0  0  0  0  0  0  0  0  0
   10.2990   -0.3481    0.0000 F   0  0  0  0  0  0  0  0  0  0  0  0
   10.2990   -3.3481    0.0000 F   0  0  0  0  0  0  0  0  0  0  0  0
   11.7990   -1.8481    0.0000 C   0  0  0  0  0  0  0  0  0  0  0  0
   11.7990   -3.3481    0.0000 F   0  0  0  0  0  0  0  0  0  0  0  0
   11.7990   -0.3481    0.0000 F   0  0  0  0  0  0  0  0  0  0  0  0
   13.2990   -1.8481    0.0000 C   0  0  0  0  0  0  0  0  0  0  0  0
   13.2990   -0.3481    0.0000 F   0  0  0  0  0  0  0  0  0  0  0  0
   13.2990   -3.3481    0.0000 F   0  0  0  0  0  0  0  0  0  0  0  0
   14.7990   -1.8481    0.0000 C   0  0  0  0  0  0  0  0  0  0  0  0
   14.7990   -3.3481    0.0000 F   0  0  0  0  0  0  0  0  0  0  0  0
   14.7990   -0.3481    0.0000 F   0  0  0  0  0  0  0  0  0  0  0  0
   16.2990   -1.8481    0.0000 C   0  0  0  0  0  0  0  0  0  0  0  0
   16.2990   -0.3481    0.0000 F   0  0  0  0  0  0  0  0  0  0  0  0
   16.2990   -3.3481    0.0000 F   0  0  0  0  0  0  0  0  0  0  0  0
   17.7990   -1.8481    0.0000 C   0  0  0  0  0  0  0  0  0  0  0  0
   17.7990   -3.3481    0.0000 F   0  0  0  0  0  0  0  0  0  0  0  0
   17.7990   -0.3481    0.0000 F   0  0  0  0  0  0  0  0  0  0  0  0
   19.2990   -1.8481    0.0000 C   0  0  0  0  0  0  0  0  0  0  0  0
   19.2990   -0.3481    0.0000 F   0  0  0  0  0  0  0  0  0  0  0  0
   19.2990   -3.3481    0.0000 F   0  0  0  0  0  0  0  0  0  0  0  0
   20.7990   -1.8481    0.0000 C   0  0  0  0  0  0  0  0  0  0  0  0
   20.7990   -3.3481    0.0000 F   0  0  0  0  0  0  0  0  0  0  0  0
   20.7990   -0.3481    0.0000 F   0  0  0  0  0  0  0  0  0  0  0  0
   22.2990   -1.8481    0.0000 C   0  0  0  0  0  0  0  0  0  0  0  0
   22.2990   -0.3481    0.0000 F   0  0  0  0  0  0  0  0  0  0  0  0
   22.2990   -3.3481    0.0000 F   0  0  0  0  0  0  0  0  0  0  0  0
   23.7990   -1.8481    0.0000 C   0  0  0  0  0  0  0  0  0  0  0  0
   23.7990   -3.3481    0.0000 F   0  0  0  0  0  0  0  0  0  0  0  0
   23.7990   -0.3481    0.0000 F   0  0  0  0  0  0  0  0  0  0  0  0
   25.2990   -1.8481    0.0000 C   0  0  0  0  0  0  0  0  0  0  0  0
   25.2990   -0.3481    0.0000 F   0  0  0  0  0  0  0  0  0  0  0  0
   25.2990   -3.3481    0.0000 F   0  0  0  0  0  0  0  0  0  0  0  0
   26.7990   -1.8481    0.0000 C   0  0  0  0  0  0  0  0  0  0  0  0
   26.7990   -3.3481    0.0000 F   0  0  0  0  0  0  0  0  0  0  0  0
   26.7990   -0.3481    0.0000 F   0  0  0  0  0  0  0  0  0  0  0  0
   28.2990   -1.8481    0.0000 C   0  0  0  0  0  0  0  0  0  0  0  0
   29.7990   -1.8481    0.0000 F   0  0  0  0  0  0  0  0  0  0  0  0
   28.2990   -0.3481    0.0000 F   0  0  0  0  0  0  0  0  0  0  0  0
   28.2990   -3.3481    0.0000 F   0  0  0  0  0  0  0  0  0  0  0  0
  1  2  1  0
  2  3  1  0
  2  4  1  0
  4  5  1  0
  5  6  2  0
  5  7  1  0
  2  8  1  0
  8  9  1  0
  9 10  1  0
  9 11  1  0
 11 12  1  0
 12 13  1  0
 12 14  1  0
 12 15  1  0
 15 16  1  0
 15 17  1  0
 15 18  1  0
 18 19  1  0
 18 20  1  0
 18 21  1  0
 21 22  1  0
 21 23  1  0
 21 24  1  0
 24 25  1  0
 24 26  1  0
 24 27  1  0
 27 28  1  0
 27 29  1  0
 27 30  1  0
 30 31  1  0
 30 32  1  0
 30 33  1  0
 33 34  1  0
 33 35  1  0
 33 36  1  0
 36 37  1  0
 36 38  1  0
 36 39  1  0
 39 40  1  0
 39 41  1  0
 39 42  1  0
 42 43  1  0
 42 44  1  0
 42 45  1  0
 45 46  1  0
 45 47  1  0
 45 48  1  0
 48 49  1  0
 48 50  1  0
 48 51  1  0
 51 52  1  0
 51 53  1  0
 51 54  1  0
 54 55  1  0
 54 56  1  0
 54 57  1  0
 57 58  1  0
 57 59  1  0
 57 60  1  0
M  CHG  2   2   1   7  -1
M  END
$$$$

     RDKit          2D

 23 22  0  0  0  0  0  0  0  0999 V2000
    0.0000    0.0000    0.0000 C   0  0  0  0  0  0  0  0  0  0  0  0
    1.2990    0.7500    0.0000 N   0  0  0  0  0  0  0  0  0  0  0  0
    2.5981    1.5000    0.0000 C   0  0  0  0  0  0  0  0  0  0  0  0
    0.5490    2.0490    0.0000 C   0  0  0  0  0  0  0  0  0  0  0  0
    1.2990    3.3481    0.0000 C   0  0  0  0  0  0  0  0  0  0  0  0
    2.7990    3.3481    0.0000 O   0  0  0  0  0  0  0  0  0  0  0  0
    0.5490    4.6471    0.0000 O   0  0  0  0  0  0  0  0  0  0  0  0
    2.0490   -0.5490    0.0000 C   0  0  0  0  0  0  0  0  0  0  0  0
    3.5490   -0.5490    0.0000 C   0  0  0  0  0  0  0  0  0  0  0  0
    4.2990    0.7500    0.0000 O   0  0  0  0  0  0  0  0  0  0  0  0
    4.2990   -1.8481    0.0000 C   0  0  0  0  0  0  0  0  0  0  0  0
    5.7990   -1.8481    0.0000 C   0  0  0  0  0  0  0  0  0  0  0  0
    6.5490   -0.5490    0.0000 F   0  0  0  0  0  0  0  0  0  0  0  0
    6.5490   -3.1471    0.0000 C   0  0  0  0  0  0  0  0  0  0  0  0
    7.8481   -2.3971    0.0000 F   0  0  0  0  0  0  0  0  0  0  0  0
    5.2500   -3.8971    0.0000 F   0  0  0  0  0  0  0  0  0  0  0  0
    7.2990   -4.4462    0.0000 C   0  0  0  0  0  0  0  0  0  0  0  0
    6.0000   -5.1962    0.0000 F   0  0  0  0  0  0  0  0  0  0  0  0
    8.5981   -3.6962    0.0000 F   0  0  0  0  0  0  0  0  0  0  0  0
    8.0490   -5.7452    0.0000 C   0  0  0  0  0  0  0  0  0  0  0  0
    8.7990   -7.0442    0.0000 F   0  0  0  0  0  0  0  0  0  0  0  0
    9.3481   -4.9952    0.0000 F   0  0  0  0  0  0  0  0  0  0  0  0
    6.7500   -6.4952    0.0000 F   0  0  0  0  0  0  0  0  0  0  0  0
  1  2  1  0
  2  3  1  0
  2  4  1  0
  4  5  1  0
  5  6  2  0
  5  7  1  0
  2  8  1  0
  8  9  1  0
  9 10  1  0
  9 11  1  0
 11 12  2  3
 12 13  1  0
 12 14  1  0
 14 15  1  0
 14 16  1  0
 14 17  1  0
 17 18  1  0
 17 19  1  0
 17 20  1  0
 20 21  1  0
 20 22  1  0
 20 23  1  0
M  CHG  2   2   1   7  -1
M  END
$$$$

     RDKit          2D

 18 17  0  0  0  0  0  0  0  0999 V2000
    0.0000    0.0000    0.0000 C   0  0  0  0  0  0  0  0  0  0  0  0
    1.2990    0.7500    0.0000 N   0  0  0  0  0  0  0  0  0  0  0  0
    2.5981    1.5000    0.0000 C   0  0  0  0  0  0  0  0  0  0  0  0
    2.0490   -0.5490    0.0000 C   0  0  0  0  0  0  0  0  0  0  0  0
    3.5490   -0.5490    0.0000 C   0  0  0  0  0  0  0  0  0  0  0  0
    4.2990   -1.8481    0.0000 C   0  0  0  0  0  0  0  0  0  0  0  0
    5.7990   -1.8481    0.0000 C   0  0  0  0  0  0  0  0  0  0  0  0
    6.5490   -3.1471    0.0000 C   0  0  0  0  0  0  0  0  0  0  0  0
    7.8481   -2.3971    0.0000 F   0  0  0  0  0  0  0  0  0  0  0  0
    5.2500   -3.8971    0.0000 F   0  0  0  0  0  0  0  0  0  0  0  0
    7.2990   -4.4462    0.0000 C   0  0  0  0  0  0  0  0  0  0  0  0
    8.0490   -5.7452    0.0000 F   0  0  0  0  0  0  0  0  0  0  0  0
    6.0000   -5.1962    0.0000 F   0  0  0  0  0  0  0  0  0  0  0  0
    8.5981   -3.6962    0.0000 F   0  0  0  0  0  0  0  0  0  0  0  0
    0.5490    2.0490    0.0000 C   0  0  0  0  0  0  0  0  0  0  0  0
    1.2990    3.3481    0.0000 C   0  0  0  0  0  0  0  0  0  0  0  0
    2.7990    3.3481    0.0000 O   0  0  0  0  0  0  0  0  0  0  0  0
    0.5490    4.6471    0.0000 O   0  0  0  0  0  0  0  0  0  0  0  0
  1  2  1  0
  2  3  1  0
  2  4  1  0
  4  5  1  0
  5  6  1  0
  6  7  1  0
  7  8  1  0
  8  9  1  0
  8 10  1  0
  8 11  1  0
 11 12  1  0
 11 13  1  0
 11 14  1  0
  2 15  1  0
 15 16  1  0
 16 17  2  0
 16 18  1  0
M  CHG  2   2   1  18  -1
M  END
$$$$

     RDKit          2D

 40 39  0  0  0  0  0  0  0  0999 V2000
   15.0394    6.9510    0.0000 O   0  0  0  0  0  0  0  0  0  0  0  0
   13.7404    6.2010    0.0000 S   0  0  0  0  0  0  0  0  0  0  0  0
   13.1038    5.7212    0.0000 O   0  0  0  0  0  0  0  0  0  0  0  0
   14.4904    4.9019    0.0000 O   0  0  0  0  0  0  0  0  0  0  0  0
   12.9904    7.5000    0.0000 C   0  0  0  0  0  0  0  0  0  0  0  0
   14.2894    8.2500    0.0000 F   0  0  0  0  0  0  0  0  0  0  0  0
   12.2404    8.7990    0.0000 F   0  0  0  0  0  0  0  0  0  0  0  0
   11.6913    6.7500    0.0000 C   0  0  0  0  0  0  0  0  0  0  0  0
   12.0374    5.9347    0.0000 F   0  0  0  0  0  0  0  0  0  0  0  0
   10.9413    8.0490    0.0000 F   0  0  0  0  0  0  0  0  0  0  0  0
   10.3923    6.0000    0.0000 C   0  0  0  0  0  0  0  0  0  0  0  0
    9.6423    7.2990    0.0000 F   0  0  0  0  0  0  0  0  0  0  0  0
   11.1423    4.7010    0.0000 F   0  0  0  0  0  0  0  0  0  0  0  0
    9.0933    5.2500    0.0000 C   0  0  0  0  0  0  0  0  0  0  0  0
    9.8433    3.9510    0.0000 F   0  0  0  0  0  0  0  0  0  0  0  0
    8.3433    6.5490    0.0000 F   0  0  0  0  0  0  0  0  0  0  0  0
    7.7942    4.5000    0.0000 C   0  0  0  0  0  0  0  0  0  0  0  0
    7.0442    5.7990    0.0000 F   0  0  0  0  0  0  0  0  0  0  0  0
    8.5442    3.2010    0.0000 F   0  0  0  0  0  0  0  0  0  0  0  0
    6.4952    3.7500    0.0000 C   0  0  0  0  0  0  0  0  0  0  0  0
    7.2452    2.4510    0.0000 F   0  0  0  0  0  0  0  0  0  0  0  0
    5.7452    5.0490    0.0000 F   0  0  0  0  0  0  0  0  0  0  0  0
    5.1962    3.0000    0.0000 C   0  0  0  0  0  0  0  0  0  0  0  0
    4.4462    4.2990    0.0000 F   0  0  0  0  0  0  0  0  0  0  0  0
    5.9462    1.7010    0.0000 F   0  0  0  0  0  0  0  0  0  0  0  0
    3.8971    2.2500    0.0000 C   0  0  0  0  0  0  0  0  0  0  0  0
    4.6471    0.9510    0.0000 F   0  0  0  0  0  0  0  0  0  0  0  0
    3.1471    3.5490    0.0000 F   0  0  0  0  0  0  0  0  0  0  0  0
    2.5981    1.5000    0.0000 C   0  0  0  0  0  0  0  0  0  0  0  0
    1.8481    2.7990    0.0000 F   0  0  0  0  0  0  0  0  0  0  0  0
    3.3481    0.2010    0.0000 F   0  0  0  0  0  0  0  0  0  0  0  0
    1.2990    0.7500    0.0000 C   0  0  0  0  0  0  0  0  0  0  0  0
    2.0490   -0.5490    0.0000 F   0  0  0  0  0  0  0  0  0  0  0  0
    0.5490    2.0490    0.0000 F   0  0  0  0  0  0  0  0  0  0  0  0
    0.0000    0.0000    0.0000 C   0  0  0  0  0  0  0  0  0  0  0  0
   -0.0000   -1.5000    0.0000 F   0  0  0  0  0  0  0  0  0  0  0  0
   -1.2990    0.7500    0.0000 C   0  0  0  0  0  0  0  0  0  0  0  0
   -2.5981    1.5000    0.0000 F   0  0  0  0  0  0  0  0  0  0  0  0
   -2.0490   -0.5490    0.0000 F   0  0  0  0  0  0  0  0  0  0  0  0
   -0.5490    2.0490    0.0000 F   0  0  0  0  0  0  0  0  0  0  0  0
  1  2  2  0
  2  3  2  0
  2  4  1  0
  2  5  1  0
  5  6  1  0
  5  7  1  0
  5  8  1  0
  8  9  1  0
  8 10  1  0
  8 11  1  0
 11 12  1  0
 11 13  1  0
 11 14  1  0
 14 15  1  0
 14 16  1  0
 14 17  1  0
 17 18  1  0
 17 19  1  0
 17 20  1  0
 20 21  1  0
 20 22  1  0
 20 23  1  0
 23 24  1  0
 23 25  1  0
 23 26  1  0
 26 27  1  0
 26 28  1  0
 26 29  1  0
 29 30  1  0
 29 31  1  0
 29 32  1  0
 32 33  1  0
 32 34  1  0
 32 35  1  0
 35 36  1  0
 35 37  1  0
 37 38  1  0
 37 39  1  0
 37 40  1  0
M  END
$$$$

     RDKit          2D

 40 39  0  0  0  0  0  0  0  0999 V2000
    0.0000    0.0000    0.0000 C   0  0  0  0  0  0  0  0  0  0  0  0
    1.2990    0.7500    0.0000 N   0  0  0  0  0  0  0  0  0  0  0  0
    2.5981   -0.0000    0.0000 C   0  0  0  0  0  0  0  0  0  0  0  0
    3.8971    0.7500    0.0000 C   0  0  0  0  0  0  0  0  0  0  0  0
    3.8971    2.2500    0.0000 O   0  0  0  0  0  0  0  0  0  0  0  0
    5.1962    0.0000    0.0000 O   0  0  0  0  0  0  0  0  0  0  0  0
    1.2990    2.2500    0.0000 S   0  0  0  0  0  0  0  0  0  0  0  0
    0.5078    2.1528    0.0000 O   0  0  0  0  0  0  0  0  0  0  0  0
    2.7990    2.2500    0.0000 O   0  0  0  0  0  0  0  0  0  0  0  0
    1.2990    3.7500    0.0000 C   0  0  0  0  0  0  0  0  0  0  0  0
    2.7990    3.7500    0.0000 F   0  0  0  0  0  0  0  0  0  0  0  0
    1.2990    5.2500    0.0000 F   0  0  0  0  0  0  0  0  0  0  0  0
   -0.2010    3.7500    0.0000 C   0  0  0  0  0  0  0  0  0  0  0  0
   -0.3089    2.8709    0.0000 F   0  0  0  0  0  0  0  0  0  0  0  0
   -0.2010    5.2500    0.0000 F   0  0  0  0  0  0  0  0  0  0  0  0
   -1.7010    3.7500    0.0000 C   0  0  0  0  0  0  0  0  0  0  0  0
   -1.7010    2.2500    0.0000 F   0  0  0  0  0  0  0  0  0  0  0  0
   -1.7010    5.2500    0.0000 F   0  0  0  0  0  0  0  0  0  0  0  0
   -3.2010    3.7500    0.0000 C   0  0  0  0  0  0  0  0  0  0  0  0
   -3.2010    5.2500    0.0000 F   0  0  0  0  0  0  0  0  0  0  0  0
   -3.2010    2.2500    0.0000 F   0  0  0  0  0  0  0  0  0  0  0  0
   -4.7010    3.7500    0.0000 C   0  0  0  0  0  0  0  0  0  0  0  0
   -4.7010    2.2500    0.0000 F   0  0  0  0  0  0  0  0  0  0  0  0
   -4.7010    5.2500    0.0000 F   0  0  0  0  0  0  0  0  0  0  0  0
   -6.2010    3.7500    0.0000 C   0  0  0  0  0  0  0  0  0  0  0  0
   -6.2010    2.2500    0.0000 F   0  0  0  0  0  0  0  0  0  0  0  0
   -6.2010    5.2500    0.0000 F   0  0  0  0  0  0  0  0  0  0  0  0
   -7.7010    3.7500    0.0000 C   0  0  0  0  0  0  0  0  0  0  0  0
   -7.7010    5.2500    0.0000 F   0  0  0  0  0  0  0  0  0  0  0  0
   -7.7010    2.2500    0.0000 F   0  0  0  0  0  0  0  0  0  0  0  0
   -9.2010    3.7500    0.0000 C   0  0  0  0  0  0  0  0  0  0  0  0
   -9.2010    2.2500    0.0000 F   0  0  0  0  0  0  0  0  0  0  0  0
   -9.2010    5.2500    0.0000 F   0  0  0  0  0  0  0  0  0  0  0  0
  -10.7010    3.7500    0.0000 C   0  0  0  0  0  0  0  0  0  0  0  0
  -10.7010    5.2500    0.0000 F   0  0  0  0  0  0  0  0  0  0  0  0
  -10.7010    2.2500    0.0000 F   0  0  0  0  0  0  0  0  0  0  0  0
  -12.2010    3.7500    0.0000 C   0  0  0  0  0  0  0  0  0  0  0  0
  -13.7010    3.7500    0.0000 F   0  0  0  0  0  0  0  0  0  0  0  0
  -12.2010    2.2500    0.0000 F   0  0  0  0  0  0  0  0  0  0  0  0
  -12.2010    5.2500    0.0000 F   0  0  0  0  0  0  0  0  0  0  0  0
  1  2  1  0
  2  3  1  0
  3  4  1  0
  4  5  2  0
  4  6  1  0
  2  7  1  0
  7  8  2  0
  7  9  2  0
  7 10  1  0
 10 11  1  0
 10 12  1  0
 10 13  1  0
 13 14  1  0
 13 15  1  0
 13 16  1  0
 16 17  1  0
 16 18  1  0
 16 19  1  0
 19 20  1  0
 19 21  1  0
 19 22  1  0
 22 23  1  0
 22 24  1  0
 22 25  1  0
 25 26  1  0
 25 27  1  0
 25 28  1  0
 28 29  1  0
 28 30  1  0
 28 31  1  0
 31 32  1  0
 31 33  1  0
 31 34  1  0
 34 35  1  0
 34 36  1  0
 34 37  1  0
 37 38  1  0
 37 39  1  0
 37 40  1  0
M  END
$$$$

     RDKit          2D

 46 45  0  0  0  0  0  0  0  0999 V2000
    0.0000    0.0000    0.0000 C   0  0  0  0  0  0  0  0  0  0  0  0
    1.2990    0.7500    0.0000 N   0  0  0  0  0  0  0  0  0  0  0  0
    2.5981   -0.0000    0.0000 C   0  0  0  0  0  0  0  0  0  0  0  0
    3.8971    0.7500    0.0000 C   0  0  0  0  0  0  0  0  0  0  0  0
    3.8971    2.2500    0.0000 O   0  0  0  0  0  0  0  0  0  0  0  0
    5.1962    0.0000    0.0000 O   0  0  0  0  0  0  0  0  0  0  0  0
    1.2990    2.2500    0.0000 S   0  0  0  0  0  0  0  0  0  0  0  0
    0.5078    2.1528    0.0000 O   0  0  0  0  0  0  0  0  0  0  0  0
    2.7990    2.2500    0.0000 O   0  0  0  0  0  0  0  0  0  0  0  0
    1.2990    3.7500    0.0000 C   0  0  0  0  0  0  0  0  0  0  0  0
    2.7990    3.7500    0.0000 F   0  0  0  0  0  0  0  0  0  0  0  0
    1.2990    5.2500    0.0000 F   0  0  0  0  0  0  0  0  0  0  0  0
   -0.2010    3.7500    0.0000 C   0  0  0  0  0  0  0  0  0  0  0  0
   -0.3089    2.8709    0.0000 F   0  0  0  0  0  0  0  0  0  0  0  0
   -0.2010    5.2500    0.0000 F   0  0  0  0  0  0  0  0  0  0  0  0
   -1.7010    3.7500    0.0000 C   0  0  0  0  0  0  0  0  0  0  0  0
   -1.7010    2.2500    0.0000 F   0  0  0  0  0  0  0  0  0  0  0  0
   -1.7010    5.2500    0.0000 F   0  0  0  0  0  0  0  0  0  0  0  0
   -3.2010    3.7500    0.0000 C   0  0  0  0  0  0  0  0  0  0  0  0
   -3.2010    5.2500    0.0000 F   0  0  0  0  0  0  0  0  0  0  0  0
   -3.2010    2.2500    0.0000 F   0  0  0  0  0  0  0  0  0  0  0  0
   -4.7010    3.7500    0.0000 C   0  0  0  0  0  0  0  0  0  0  0  0
   -4.7010    2.2500    0.0000 F   0  0  0  0  0  0  0  0  0  0  0  0
   -4.7010    5.2500    0.0000 F   0  0  0  0  0  0  0  0  0  0  0  0
   -6.2010    3.7500    0.0000 C   0  0  0  0  0  0  0  0  0  0  0  0
   -6.2010    5.2500    0.0000 F   0  0  0  0  0  0  0  0  0  0  0  0
   -6.2010    2.2500    0.0000 F   0  0  0  0  0  0  0  0  0  0  0  0
   -7.7010    3.7500    0.0000 C   0  0  0  0  0  0  0  0  0  0  0  0
   -7.7010    5.2500    0.0000 F   0  0  0  0  0  0  0  0  0  0  0  0
   -7.7010    2.2500    0.0000 F   0  0  0  0  0  0  0  0  0  0  0  0
   -9.2010    3.7500    0.0000 C   0  0  0  0  0  0  0  0  0  0  0  0
   -9.2010    2.2500    0.0000 F   0  0  0  0  0  0  0  0  0  0  0  0
   -9.2010    5.2500    0.0000 F   0  0  0  0  0  0  0  0  0  0  0  0
  -10.7010    3.7500    0.0000 C   0  0  0  0  0  0  0  0  0  0  0  0
  -10.7010    5.2500    0.0000 F   0  0  0  0  0  0  0  0  0  0  0  0
  -10.7010    2.2500    0.0000 F   0  0  0  0  0  0  0  0  0  0  0  0
  -12.2010    3.7500    0.0000 C   0  0  0  0  0  0  0  0  0  0  0  0
  -12.2010    2.2500    0.0000 F   0  0  0  0  0  0  0  0  0  0  0  0
  -12.2010    5.2500    0.0000 F   0  0  0  0  0  0  0  0  0  0  0  0
  -13.7010    3.7500    0.0000 C   0  0  0  0  0  0  0  0  0  0  0  0
  -13.7010    5.2500    0.0000 F   0  0  0  0  0  0  0  0  0  0  0  0
  -13.7010    2.2500    0.0000 F   0  0  0  0  0  0  0  0  0  0  0  0
  -15.2010    3.7500    0.0000 C   0  0  0  0  0  0  0  0  0  0  0  0
  -16.7010    3.7500    0.0000 F   0  0  0  0  0  0  0  0  0  0  0  0
  -15.2010    2.2500    0.0000 F   0  0  0  0  0  0  0  0  0  0  0  0
  -15.2010    5.2500    0.0000 F   0  0  0  0  0  0  0  0  0  0  0  0
  1  2  1  0
  2  3  1  0
  3  4  1  0
  4  5  2  0
  4  6  1  0
  2  7  1  0
  7  8  2  0
  7  9  2  0
  7 10  1  0
 10 11  1  0
 10 12  1  0
 10 13  1  0
 13 14  1  0
 13 15  1  0
 13 16  1  0
 16 17  1  0
 16 18  1  0
 16 19  1  0
 19 20  1  0
 19 21  1  0
 19 22  1  0
 22 23  1  0
 22 24  1  0
 22 25  1  0
 25 26  1  0
 25 27  1  0
 25 28  1  0
 28 29  1  0
 28 30  1  0
 28 31  1  0
 31 32  1  0
 31 33  1  0
 31 34  1  0
 34 35  1  0
 34 36  1  0
 34 37  1  0
 37 38  1  0
 37 39  1  0
 37 40  1  0
 40 41  1  0
 40 42  1  0
 40 43  1  0
 43 44  1  0
 43 45  1  0
 43 46  1  0
M  END
$$$$

     RDKit          2D

 12 12  0  0  0  0  0  0  0  0999 V2000
    2.1213    1.0607    0.0000 F   0  0  0  0  0  0  0  0  0  0  0  0
    1.0607    0.0000    0.0000 C   0  0  0  0  0  0  0  0  0  0  0  0
    2.1213   -1.0607    0.0000 F   0  0  0  0  0  0  0  0  0  0  0  0
   -0.0000   -1.0607    0.0000 C   0  0  0  0  0  0  0  0  0  0  0  0
    1.0607   -2.1213    0.0000 F   0  0  0  0  0  0  0  0  0  0  0  0
   -1.0607   -2.1213    0.0000 F   0  0  0  0  0  0  0  0  0  0  0  0
   -1.0607    0.0000    0.0000 C   0  0  0  0  0  0  0  0  0  0  0  0
   -2.1213   -1.0607    0.0000 F   0  0  0  0  0  0  0  0  0  0  0  0
   -2.1213    1.0607    0.0000 Cl  0  0  0  0  0  0  0  0  0  0  0  0
    0.0000    1.0607    0.0000 C   0  0  0  0  0  0  0  0  0  0  0  0
   -1.0607    2.1213    0.0000 F   0  0  0  0  0  0  0  0  0  0  0  0
    1.0607    2.1213    0.0000 Cl  0  0  0  0  0  0  0  0  0  0  0  0
  1  2  1  0
  2  3  1  0
  2  4  1  0
  4  5  1  0
  4  6  1  0
  4  7  1  0
  7  8  1  6
  7  9  1  0
  7 10  1  0
 10 11  1  6
 10 12  1  0
 10  2  1  0
M  END
$$$$

     RDKit          2D

 30 31  0  0  0  0  0  0  0  0999 V2000
    3.0000   -2.5981    0.0000 O   0  0  0  0  0  0  0  0  0  0  0  0
    3.7500   -1.2990    0.0000 C   0  0  0  0  0  0  0  0  0  0  0  0
    3.0000    0.0000    0.0000 N   0  0  0  0  0  0  0  0  0  0  0  0
    1.5000    0.0000    0.0000 C   0  0  0  0  0  0  0  0  0  0  0  0
    0.7500   -1.2990    0.0000 C   0  0  0  0  0  0  0  0  0  0  0  0
   -0.7500   -1.2990    0.0000 C   0  0  0  0  0  0  0  0  0  0  0  0
   -1.5000    0.0000    0.0000 C   0  0  0  0  0  0  0  0  0  0  0  0
   -3.0000    0.0000    0.0000 N   0  0  0  0  0  0  0  0  0  0  0  0
   -3.7500    1.2990    0.0000 N   0  0  0  0  0  0  0  0  0  0  0  0
   -5.2500    1.2990    0.0000 C   0  0  0  0  0  0  0  0  0  0  0  0
   -6.0000    2.5981    0.0000 C   0  0  0  0  0  0  0  0  0  0  0  0
   -7.5000    2.5981    0.0000 C   0  0  0  0  0  0  0  0  0  0  0  0
   -8.2500    1.2990    0.0000 C   0  0  0  0  0  0  0  0  0  0  0  0
   -7.5000    0.0000    0.0000 C   0  0  0  0  0  0  0  0  0  0  0  0
   -6.0000    0.0000    0.0000 C   0  0  0  0  0  0  0  0  0  0  0  0
   -0.7500    1.2990    0.0000 C   0  0  0  0  0  0  0  0  0  0  0  0
    0.7500    1.2990    0.0000 C   0  0  0  0  0  0  0  0  0  0  0  0
    5.2500   -1.2990    0.0000 C   0  0  0  0  0  0  0  0  0  0  0  0
    5.2500   -2.7990    0.0000 F   0  0  0  0  0  0  0  0  0  0  0  0
    5.2500    0.2010    0.0000 F   0  0  0  0  0  0  0  0  0  0  0  0
    6.7500   -1.2990    0.0000 C   0  0  0  0  0  0  0  0  0  0  0  0
    6.7500    0.2010    0.0000 F   0  0  0  0  0  0  0  0  0  0  0  0
    6.7500   -2.7990    0.0000 F   0  0  0  0  0  0  0  0  0  0  0  0
    8.2500   -1.2990    0.0000 C   0  0  0  0  0  0  0  0  0  0  0  0
    8.2500   -2.7990    0.0000 F   0  0  0  0  0  0  0  0  0  0  0  0
    8.2500    0.2010    0.0000 F   0  0  0  0  0  0  0  0  0  0  0  0
    9.7500   -1.2990    0.0000 C   0  0  0  0  0  0  0  0  0  0  0  0
   11.2500   -1.2990    0.0000 F   0  0  0  0  0  0  0  0  0  0  0  0
    9.7500    0.2010    0.0000 F   0  0  0  0  0  0  0  0  0  0  0  0
    9.7500   -2.7990    0.0000 F   0  0  0  0  0  0  0  0  0  0  0  0
  1  2  2  0
  2  3  1  0
  3  4  1  0
  4  5  2  0
  5  6  1  0
  6  7  2  0
  7  8  1  0
  8  9  2  3
  9 10  1  0
 10 11  2  0
 11 12  1  0
 12 13  2  0
 13 14  1  0
 14 15  2  0
  7 16  1  0
 16 17  2  0
  2 18  1  0
 18 19  1  0
 18 20  1  0
 18 21  1  0
 21 22  1  0
 21 23  1  0
 21 24  1  0
 24 25  1  0
 24 26  1  0
 24 27  1  0
 27 28  1  0
 27 29  1  0
 27 30  1  0
 17  4  1  0
 15 10  1  0
M  END
$$$$

     RDKit          2D

 42 43  0  0  0  0  0  0  0  0999 V2000
    3.0000   -2.5981    0.0000 O   0  0  0  0  0  0  0  0  0  0  0  0
    3.7500   -1.2990    0.0000 C   0  0  0  0  0  0  0  0  0  0  0  0
    3.0000    0.0000    0.0000 N   0  0  0  0  0  0  0  0  0  0  0  0
    1.5000    0.0000    0.0000 C   0  0  0  0  0  0  0  0  0  0  0  0
    0.7500   -1.2990    0.0000 C   0  0  0  0  0  0  0  0  0  0  0  0
   -0.7500   -1.2990    0.0000 C   0  0  0  0  0  0  0  0  0  0  0  0
   -1.5000    0.0000    0.0000 C   0  0  0  0  0  0  0  0  0  0  0  0
   -3.0000    0.0000    0.0000 N   0  0  0  0  0  0  0  0  0  0  0  0
   -3.7500    1.2990    0.0000 N   0  0  0  0  0  0  0  0  0  0  0  0
   -5.2500    1.2990    0.0000 C   0  0  0  0  0  0  0  0  0  0  0  0
   -6.0000    2.5981    0.0000 C   0  0  0  0  0  0  0  0  0  0  0  0
   -7.5000    2.5981    0.0000 C   0  0  0  0  0  0  0  0  0  0  0  0
   -8.2500    1.2990    0.0000 C   0  0  0  0  0  0  0  0  0  0  0  0
   -7.5000    0.0000    0.0000 C   0  0  0  0  0  0  0  0  0  0  0  0
   -6.0000    0.0000    0.0000 C   0  0  0  0  0  0  0  0  0  0  0  0
   -0.7500    1.2990    0.0000 C   0  0  0  0  0  0  0  0  0  0  0  0
    0.7500    1.2990    0.0000 C   0  0  0  0  0  0  0  0  0  0  0  0
    5.2500   -1.2990    0.0000 C   0  0  0  0  0  0  0  0  0  0  0  0
    5.2500   -2.7990    0.0000 F   0  0  0  0  0  0  0  0  0  0  0  0
    5.2500    0.2010    0.0000 F   0  0  0  0  0  0  0  0  0  0  0  0
    6.7500   -1.2990    0.0000 C   0  0  0  0  0  0  0  0  0  0  0  0
    6.7500    0.2010    0.0000 F   0  0  0  0  0  0  0  0  0  0  0  0
    6.7500   -2.7990    0.0000 F   0  0  0  0  0  0  0  0  0  0  0  0
    8.2500   -1.2990    0.0000 C   0  0  0  0  0  0  0  0  0  0  0  0
    8.2500   -2.7990    0.0000 F   0  0  0  0  0  0  0  0  0  0  0  0
    8.2500    0.2010    0.0000 F   0  0  0  0  0  0  0  0  0  0  0  0
    9.7500   -1.2990    0.0000 C   0  0  0  0  0  0  0  0  0  0  0  0
    9.7500    0.2010    0.0000 F   0  0  0  0  0  0  0  0  0  0  0  0
    9.7500   -2.7990    0.0000 F   0  0  0  0  0  0  0  0  0  0  0  0
   11.2500   -1.2990    0.0000 C   0  0  0  0  0  0  0  0  0  0  0  0
   11.2500   -2.7990    0.0000 F   0  0  0  0  0  0  0  0  0  0  0  0
   11.2500    0.2010    0.0000 F   0  0  0  0  0  0  0  0  0  0  0  0
   12.7500   -1.2990    0.0000 C   0  0  0  0  0  0  0  0  0  0  0  0
   12.7500    0.2010    0.0000 F   0  0  0  0  0  0  0  0  0  0  0  0
   12.7500   -2.7990    0.0000 F   0  0  0  0  0  0  0  0  0  0  0  0
   14.2500   -1.2990    0.0000 C   0  0  0  0  0  0  0  0  0  0  0  0
   14.2500   -2.7990    0.0000 F   0  0  0  0  0  0  0  0  0  0  0  0
   14.2500    0.2010    0.0000 F   0  0  0  0  0  0  0  0  0  0  0  0
   15.7500   -1.2990    0.0000 C   0  0  0  0  0  0  0  0  0  0  0  0
   17.2500   -1.2990    0.0000 F   0  0  0  0  0  0  0  0  0  0  0  0
   15.7500    0.2010    0.0000 F   0  0  0  0  0  0  0  0  0  0  0  0
   15.7500   -2.7990    0.0000 F   0  0  0  0  0  0  0  0  0  0  0  0
  1  2  2  0
  2  3  1  0
  3  4  1  0
  4  5  2  0
  5  6  1  0
  6  7  2  0
  7  8  1  0
  8  9  2  3
  9 10  1  0
 10 11  2  0
 11 12  1  0
 12 13  2  0
 13 14  1  0
 14 15  2  0
  7 16  1  0
 16 17  2  0
  2 18  1  0
 18 19  1  0
 18 20  1  0
 18 21  1  0
 21 22  1  0
 21 23  1  0
 21 24  1  0
 24 25  1  0
 24 26  1  0
 24 27  1  0
 27 28  1  0
 27 29  1  0
 27 30  1  0
 30 31  1  0
 30 32  1  0
 30 33  1  0
 33 34  1  0
 33 35  1  0
 33 36  1  0
 36 37  1  0
 36 38  1  0
 36 39  1  0
 39 40  1  0
 39 41  1  0
 39 42  1  0
 17  4  1  0
 15 10  1  0
M  END
$$$$

     RDKit          2D

 40 41  0  0  0  0  0  0  0  0999 V2000
    3.0000   -2.5981    0.0000 O   0  0  0  0  0  0  0  0  0  0  0  0
    3.7500   -1.2990    0.0000 C   0  0  0  0  0  0  0  0  0  0  0  0
    3.0000    0.0000    0.0000 N   0  0  0  0  0  0  0  0  0  0  0  0
    1.5000    0.0000    0.0000 C   0  0  0  0  0  0  0  0  0  0  0  0
    0.7500   -1.2990    0.0000 C   0  0  0  0  0  0  0  0  0  0  0  0
   -0.7500   -1.2990    0.0000 C   0  0  0  0  0  0  0  0  0  0  0  0
   -1.5000    0.0000    0.0000 C   0  0  0  0  0  0  0  0  0  0  0  0
   -3.0000    0.0000    0.0000 N   0  0  0  0  0  0  0  0  0  0  0  0
   -3.7500   -1.2990    0.0000 N   0  0  0  0  0  0  0  0  0  0  0  0
   -5.2500   -1.2990    0.0000 C   0  0  0  0  0  0  0  0  0  0  0  0
   -6.0000    0.0000    0.0000 C   0  0  0  0  0  0  0  0  0  0  0  0
   -7.5000    0.0000    0.0000 C   0  0  0  0  0  0  0  0  0  0  0  0
   -8.2500   -1.2990    0.0000 C   0  0  0  0  0  0  0  0  0  0  0  0
   -7.5000   -2.5981    0.0000 C   0  0  0  0  0  0  0  0  0  0  0  0
   -6.0000   -2.5981    0.0000 C   0  0  0  0  0  0  0  0  0  0  0  0
   -0.7500    1.2990    0.0000 C   0  0  0  0  0  0  0  0  0  0  0  0
   -1.5000    2.5981    0.0000 N   0  0  0  0  0  0  0  0  0  0  0  0
   -0.7500    3.8971    0.0000 C   0  0  0  0  0  0  0  0  0  0  0  0
    0.7500    3.8971    0.0000 O   0  0  0  0  0  0  0  0  0  0  0  0
   -1.5000    5.1962    0.0000 C   0  0  0  0  0  0  0  0  0  0  0  0
   -0.2010    5.9462    0.0000 F   0  0  0  0  0  0  0  0  0  0  0  0
   -2.7990    4.4462    0.0000 F   0  0  0  0  0  0  0  0  0  0  0  0
   -2.2500    6.4952    0.0000 C   0  0  0  0  0  0  0  0  0  0  0  0
   -3.5490    5.7452    0.0000 F   0  0  0  0  0  0  0  0  0  0  0  0
   -0.9510    7.2452    0.0000 F   0  0  0  0  0  0  0  0  0  0  0  0
   -3.0000    7.7942    0.0000 C   0  0  0  0  0  0  0  0  0  0  0  0
   -3.7500    9.0933    0.0000 F   0  0  0  0  0  0  0  0  0  0  0  0
   -1.7010    8.5442    0.0000 F   0  0  0  0  0  0  0  0  0  0  0  0
   -4.2990    7.0442    0.0000 F   0  0  0  0  0  0  0  0  0  0  0  0
    0.7500    1.2990    0.0000 C   0  0  0  0  0  0  0  0  0  0  0  0
    5.2500   -1.2990    0.0000 C   0  0  0  0  0  0  0  0  0  0  0  0
    5.2500   -2.7990    0.0000 F   0  0  0  0  0  0  0  0  0  0  0  0
    5.2500    0.2010    0.0000 F   0  0  0  0  0  0  0  0  0  0  0  0
    6.7500   -1.2990    0.0000 C   0  0  0  0  0  0  0  0  0  0  0  0
    6.7500    0.2010    0.0000 F   0  0  0  0  0  0  0  0  0  0  0  0
    6.7500   -2.7990    0.0000 F   0  0  0  0  0  0  0  0  0  0  0  0
    8.2500   -1.2990    0.0000 C   0  0  0  0  0  0  0  0  0  0  0  0
    9.7500   -1.2990    0.0000 F   0  0  0  0  0  0  0  0  0  0  0  0
    8.2500   -2.7990    0.0000 F   0  0  0  0  0  0  0  0  0  0  0  0
    8.2500    0.2010    0.0000 F   0  0  0  0  0  0  0  0  0  0  0  0
  1  2  2  0
  2  3  1  0
  3  4  1  0
  4  5  2  0
  5  6  1  0
  6  7  2  0
  7  8  1  0
  8  9  2  3
  9 10  1  0
 10 11  2  0
 11 12  1  0
 12 13  2  0
 13 14  1  0
 14 15  2  0
  7 16  1  0
 16 17  1  0
 17 18  1  0
 18 19  2  0
 18 20  1  0
 20 21  1  0
 20 22  1  0
 20 23  1  0
 23 24  1  0
 23 25  1  0
 23 26  1  0
 26 27  1  0
 26 28  1  0
 26 29  1  0
 16 30  2  0
  2 31  1  0
 31 32  1  0
 31 33  1  0
 31 34  1  0
 34 35  1  0
 34 36  1  0
 34 37  1  0
 37 38  1  0
 37 39  1  0
 37 40  1  0
 30  4  1  0
 15 10  1  0
M  END
$$$$

     RDKit          2D

 28 29  0  0  0  0  0  0  0  0999 V2000
    3.7500    1.2990    0.0000 O   0  0  0  0  0  0  0  0  0  0  0  0
    3.0000    0.0000    0.0000 N   0  0  0  0  0  0  0  0  0  0  0  0
    3.7500   -1.2990    0.0000 O   0  0  0  0  0  0  0  0  0  0  0  0
    1.5000    0.0000    0.0000 C   0  0  0  0  0  0  0  0  0  0  0  0
    0.7500   -1.2990    0.0000 C   0  0  0  0  0  0  0  0  0  0  0  0
   -0.7500   -1.2990    0.0000 C   0  0  0  0  0  0  0  0  0  0  0  0
   -1.5000    0.0000    0.0000 C   0  0  0  0  0  0  0  0  0  0  0  0
   -3.0000    0.0000    0.0000 N   0  0  0  0  0  0  0  0  0  0  0  0
   -3.7500    1.2990    0.0000 N   0  0  0  0  0  0  0  0  0  0  0  0
   -5.2500    1.2990    0.0000 C   0  0  0  0  0  0  0  0  0  0  0  0
   -6.0000    2.5981    0.0000 C   0  0  0  0  0  0  0  0  0  0  0  0
   -7.5000    2.5981    0.0000 C   0  0  0  0  0  0  0  0  0  0  0  0
   -8.2500    1.2990    0.0000 C   0  0  0  0  0  0  0  0  0  0  0  0
   -9.7500    1.2990    0.0000 N   0  0  0  0  0  0  0  0  0  0  0  0
  -10.5000    2.5981    0.0000 C   0  0  0  0  0  0  0  0  0  0  0  0
  -12.0000    2.5981    0.0000 C   0  0  0  0  0  0  0  0  0  0  0  0
  -12.0000    4.0981    0.0000 F   0  0  0  0  0  0  0  0  0  0  0  0
  -12.0000    1.0981    0.0000 F   0  0  0  0  0  0  0  0  0  0  0  0
  -13.5000    2.5981    0.0000 C   0  0  0  0  0  0  0  0  0  0  0  0
  -14.2500    1.2990    0.0000 F   0  0  0  0  0  0  0  0  0  0  0  0
  -14.2500    3.8971    0.0000 F   0  0  0  0  0  0  0  0  0  0  0  0
   -7.5000    0.0000    0.0000 C   0  0  0  0  0  0  0  0  0  0  0  0
   -6.0000    0.0000    0.0000 C   0  0  0  0  0  0  0  0  0  0  0  0
   -0.7500    1.2990    0.0000 C   0  0  0  0  0  0  0  0  0  0  0  0
   -1.5000    2.5981    0.0000 N   0  0  0  0  0  0  0  0  0  0  0  0
   -3.0000    2.5981    0.0000 O   0  0  0  0  0  0  0  0  0  0  0  0
   -0.7500    3.8971    0.0000 O   0  0  0  0  0  0  0  0  0  0  0  0
    0.7500    1.2990    0.0000 C   0  0  0  0  0  0  0  0  0  0  0  0
  1  2  2  0
  2  3  1  0
  2  4  1  0
  4  5  2  0
  5  6  1  0
  6  7  2  0
  7  8  1  0
  8  9  2  3
  9 10  1  0
 10 11  2  0
 11 12  1  0
 12 13  2  0
 13 14  1  0
 14 15  1  0
 15 16  1  0
 16 17  1  0
 16 18  1  0
 16 19  1  0
 19 20  1  0
 19 21  1  0
 13 22  1  0
 22 23  2  0
  7 24  1  0
 24 25  1  0
 25 26  2  0
 25 27  1  0
 24 28  2  0
 28  4  1  0
 23 10  1  0
M  CHG  4   2   1   3  -1  25   1  27  -1
M  END
$$$$

     RDKit          2D

 76 77  0  0  0  0  0  0  0  0999 V2000
   10.5000  -12.9904    0.0000 F   0  0  0  0  0  0  0  0  0  0  0  0
    9.7500  -11.6913    0.0000 C   0  0  0  0  0  0  0  0  0  0  0  0
   11.0490  -10.9413    0.0000 F   0  0  0  0  0  0  0  0  0  0  0  0
    8.4510  -12.4413    0.0000 F   0  0  0  0  0  0  0  0  0  0  0  0
    9.0000  -10.3923    0.0000 C   0  0  0  0  0  0  0  0  0  0  0  0
    7.7010  -11.1423    0.0000 F   0  0  0  0  0  0  0  0  0  0  0  0
   10.2990   -9.6423    0.0000 F   0  0  0  0  0  0  0  0  0  0  0  0
    8.2500   -9.0933    0.0000 C   0  0  0  0  0  0  0  0  0  0  0  0
    9.5490   -8.3433    0.0000 F   0  0  0  0  0  0  0  0  0  0  0  0
    6.9510   -9.8433    0.0000 F   0  0  0  0  0  0  0  0  0  0  0  0
    7.5000   -7.7942    0.0000 C   0  0  0  0  0  0  0  0  0  0  0  0
    6.2010   -8.5442    0.0000 F   0  0  0  0  0  0  0  0  0  0  0  0
    8.7990   -7.0442    0.0000 F   0  0  0  0  0  0  0  0  0  0  0  0
    6.7500   -6.4952    0.0000 C   0  0  0  0  0  0  0  0  0  0  0  0
    8.0490   -5.7452    0.0000 F   0  0  0  0  0  0  0  0  0  0  0  0
    5.4510   -7.2452    0.0000 F   0  0  0  0  0  0  0  0  0  0  0  0
    6.0000   -5.1962    0.0000 C   0  0  0  0  0  0  0  0  0  0  0  0
    7.2990   -4.4462    0.0000 F   0  0  0  0  0  0  0  0  0  0  0  0
    4.7010   -5.9462    0.0000 F   0  0  0  0  0  0  0  0  0  0  0  0
    5.2500   -3.8971    0.0000 C   0  0  0  0  0  0  0  0  0  0  0  0
    3.9510   -4.6471    0.0000 F   0  0  0  0  0  0  0  0  0  0  0  0
    6.5490   -3.1471    0.0000 F   0  0  0  0  0  0  0  0  0  0  0  0
    4.5000   -2.5981    0.0000 C   0  0  0  0  0  0  0  0  0  0  0  0
    5.7990   -1.8481    0.0000 F   0  0  0  0  0  0  0  0  0  0  0  0
    3.2010   -3.3481    0.0000 F   0  0  0  0  0  0  0  0  0  0  0  0
    3.7500   -1.2990    0.0000 C   0  0  0  0  0  0  0  0  0  0  0  0
    2.4510   -2.0490    0.0000 F   0  0  0  0  0  0  0  0  0  0  0  0
    5.0490   -0.5490    0.0000 F   0  0  0  0  0  0  0  0  0  0  0  0
    3.0000    0.0000    0.0000 O   0  0  0  0  0  0  0  0  0  0  0  0
    1.5000    0.0000    0.0000 C   0  0  0  0  0  0  0  0  0  0  0  0
    0.7500   -1.2990    0.0000 C   0  0  0  0  0  0  0  0  0  0  0  0
   -0.7500   -1.2990    0.0000 C   0  0  0  0  0  0  0  0  0  0  0  0
   -1.5000    0.0000    0.0000 C   0  0  0  0  0  0  0  0  0  0  0  0
   -3.0000    0.0000    0.0000 C   0  0  0  0  0  0  0  0  0  0  0  0
   -3.7500    1.2990    0.0000 O   0  0  0  0  0  0  0  0  0  0  0  0
   -5.2500    1.2990    0.0000 C   0  0  0  0  0  0  0  0  0  0  0  0
   -6.0000    2.5981    0.0000 C   0  0  0  0  0  0  0  0  0  0  0  0
   -7.5000    2.5981    0.0000 O   0  0  0  0  0  0  0  0  0  0  0  0
   -8.2500    3.8971    0.0000 C   0  0  0  0  0  0  0  0  0  0  0  0
   -9.7500    3.8971    0.0000 C   0  0  0  0  0  0  0  0  0  0  0  0
  -10.5000    5.1962    0.0000 C   0  0  0  0  0  0  0  0  0  0  0  0
  -12.0000    5.1962    0.0000 C   0  0  0  0  0  0  0  0  0  0  0  0
  -12.7500    3.8971    0.0000 C   0  0  0  0  0  0  0  0  0  0  0  0
  -14.2500    3.8971    0.0000 O   0  0  0  0  0  0  0  0  0  0  0  0
  -15.0000    5.1962    0.0000 C   0  0  0  0  0  0  0  0  0  0  0  0
  -13.7010    5.9462    0.0000 F   0  0  0  0  0  0  0  0  0  0  0  0
  -16.2990    4.4462    0.0000 F   0  0  0  0  0  0  0  0  0  0  0  0
  -15.7500    6.4952    0.0000 C   0  0  0  0  0  0  0  0  0  0  0  0
  -17.0490    5.7452    0.0000 F   0  0  0  0  0  0  0  0  0  0  0  0
  -14.4510    7.2452    0.0000 F   0  0  0  0  0  0  0  0  0  0  0  0
  -16.5000    7.7942    0.0000 C   0  0  0  0  0  0  0  0  0  0  0  0
  -15.2010    8.5442    0.0000 F   0  0  0  0  0  0  0  0  0  0  0  0
  -17.7990    7.0442    0.0000 F   0  0  0  0  0  0  0  0  0  0  0  0
  -17.2500    9.0933    0.0000 C   0  0  0  0  0  0  0  0  0  0  0  0
  -18.5490    8.3433    0.0000 F   0  0  0  0  0  0  0  0  0  0  0  0
  -15.9510    9.8433    0.0000 F   0  0  0  0  0  0  0  0  0  0  0  0
  -18.0000   10.3923    0.0000 C   0  0  0  0  0  0  0  0  0  0  0  0
  -19.2990    9.6423    0.0000 F   0  0  0  0  0  0  0  0  0  0  0  0
  -16.7010   11.1423    0.0000 F   0  0  0  0  0  0  0  0  0  0  0  0
  -18.7500   11.6913    0.0000 C   0  0  0  0  0  0  0  0  0  0  0  0
  -17.4510   12.4413    0.0000 F   0  0  0  0  0  0  0  0  0  0  0  0
  -20.0490   10.9413    0.0000 F   0  0  0  0  0  0  0  0  0  0  0  0
  -19.5000   12.9904    0.0000 C   0  0  0  0  0  0  0  0  0  0  0  0
  -20.7990   12.2404    0.0000 F   0  0  0  0  0  0  0  0  0  0  0  0
  -18.2010   13.7404    0.0000 F   0  0  0  0  0  0  0  0  0  0  0  0
  -20.2500   14.2894    0.0000 C   0  0  0  0  0  0  0  0  0  0  0  0
  -18.9510   15.0394    0.0000 F   0  0  0  0  0  0  0  0  0  0  0  0
  -21.5490   13.5394    0.0000 F   0  0  0  0  0  0  0  0  0  0  0  0
  -21.0000   15.5885    0.0000 C   0  0  0  0  0  0  0  0  0  0  0  0
  -21.7500   16.8875    0.0000 F   0  0  0  0  0  0  0  0  0  0  0  0
  -22.2990   14.8385    0.0000 F   0  0  0  0  0  0  0  0  0  0  0  0
  -19.7010   16.3385    0.0000 F   0  0  0  0  0  0  0  0  0  0  0  0
  -12.0000    2.5981    0.0000 C   0  0  0  0  0  0  0  0  0  0  0  0
  -10.5000    2.5981    0.0000 C   0  0  0  0  0  0  0  0  0  0  0  0
   -0.7500    1.2990    0.0000 C   0  0  0  0  0  0  0  0  0  0  0  0
    0.7500    1.2990    0.0000 C   0  0  0  0  0  0  0  0  0  0  0  0
  1  2  1  0
  2  3  1  0
  2  4  1  0
  2  5  1  0
  5  6  1  0
  5  7  1  0
  5  8  1  0
  8  9  1  0
  8 10  1  0
  8 11  1  0
 11 12  1  0
 11 13  1  0
 11 14  1  0
 14 15  1  0
 14 16  1  0
 14 17  1  0
 17 18  1  0
 17 19  1  0
 17 20  1  0
 20 21  1  0
 20 22  1  0
 20 23  1  0
 23 24  1  0
 23 25  1  0
 23 26  1  0
 26 27  1  0
 26 28  1  0
 26 29  1  0
 29 30  1  0
 30 31  2  0
 31 32  1  0
 32 33  2  0
 33 34  1  0
 34 35  1  0
 35 36  1  0
 36 37  1  0
 37 38  1  0
 38 39  1  0
 39 40  1  0
 40 41  2  0
 41 42  1  0
 42 43  2  0
 43 44  1  0
 44 45  1  0
 45 46  1  0
 45 47  1  0
 45 48  1  0
 48 49  1  0
 48 50  1  0
 48 51  1  0
 51 52  1  0
 51 53  1  0
 51 54  1  0
 54 55  1  0
 54 56  1  0
 54 57  1  0
 57 58  1  0
 57 59  1  0
 57 60  1  0
 60 61  1  0
 60 62  1  0
 60 63  1  0
 63 64  1  0
 63 65  1  0
 63 66  1  0
 66 67  1  0
 66 68  1  0
 66 69  1  0
 69 70  1  0
 69 71  1  0
 69 72  1  0
 43 73  1  0
 73 74  2  0
 33 75  1  0
 75 76  2  0
 76 30  1  0
 74 40  1  0
M  END
$$$$

     RDKit          2D

 32 34  0  0  0  0  0  0  0  0999 V2000
    3.7500    1.2990    0.0000 O   0  0  0  0  0  0  0  0  0  0  0  0
    3.0000    0.0000    0.0000 C   0  0  0  0  0  0  0  0  0  0  0  0
    3.7500   -1.2990    0.0000 O   0  0  0  0  0  0  0  0  0  0  0  0
    5.2500   -1.2990    0.0000 C   0  0  0  0  0  0  0  0  0  0  0  0
    6.0000   -2.5981    0.0000 C   0  0  0  0  0  0  0  0  0  0  0  0
    6.7500   -3.8971    0.0000 F   0  0  0  0  0  0  0  0  0  0  0  0
    7.2990   -1.8481    0.0000 F   0  0  0  0  0  0  0  0  0  0  0  0
    4.7010   -3.3481    0.0000 F   0  0  0  0  0  0  0  0  0  0  0  0
    6.0000    0.0000    0.0000 C   0  0  0  0  0  0  0  0  0  0  0  0
    6.7500    1.2990    0.0000 F   0  0  0  0  0  0  0  0  0  0  0  0
    7.2990   -0.7500    0.0000 F   0  0  0  0  0  0  0  0  0  0  0  0
    4.7010    0.7500    0.0000 F   0  0  0  0  0  0  0  0  0  0  0  0
    1.5000    0.0000    0.0000 N   0  0  0  0  0  0  0  0  0  0  0  0
    0.7500   -1.2990    0.0000 C   0  0  0  0  0  0  0  0  0  0  0  0
   -0.7500   -1.2990    0.0000 C   0  0  0  0  0  0  0  0  0  0  0  0
   -1.5000    0.0000    0.0000 N   0  0  0  0  0  0  0  0  0  0  0  0
   -3.0000    0.0000    0.0000 C   0  0  0  0  0  0  0  0  0  0  0  0
   -3.7500    1.2990    0.0000 C   0  0  0  0  0  0  0  0  0  0  0  0
   -3.0000    2.5981    0.0000 C   0  0  0  0  0  0  0  0  0  0  0  0
   -3.7500    3.8971    0.0000 C   0  0  0  0  0  0  0  0  0  0  0  0
   -5.2500    3.8971    0.0000 C   0  0  0  0  0  0  0  0  0  0  0  0
   -6.0000    2.5981    0.0000 C   0  0  0  0  0  0  0  0  0  0  0  0
   -7.5000    2.5981    0.0000 O   0  0  0  0  0  0  0  0  0  0  0  0
   -8.2500    3.8971    0.0000 C   0  0  0  0  0  0  0  0  0  0  0  0
   -7.5000    5.1962    0.0000 C   0  0  0  0  0  0  0  0  0  0  0  0
   -8.2500    6.4952    0.0000 C   0  0  0  0  0  0  0  0  0  0  0  0
   -9.7500    6.4952    0.0000 C   0  0  0  0  0  0  0  0  0  0  0  0
  -10.5000    5.1962    0.0000 C   0  0  0  0  0  0  0  0  0  0  0  0
   -9.7500    3.8971    0.0000 C   0  0  0  0  0  0  0  0  0  0  0  0
   -5.2500    1.2990    0.0000 C   0  0  0  0  0  0  0  0  0  0  0  0
   -0.7500    1.2990    0.0000 C   0  0  0  0  0  0  0  0  0  0  0  0
    0.7500    1.2990    0.0000 C   0  0  0  0  0  0  0  0  0  0  0  0
  1  2  2  0
  2  3  1  0
  3  4  1  0
  4  5  1  0
  5  6  1  0
  5  7  1  0
  5  8  1  0
  4  9  1  0
  9 10  1  0
  9 11  1  0
  9 12  1  0
  2 13  1  0
 13 14  1  0
 14 15  1  0
 15 16  1  0
 16 17  1  0
 17 18  1  0
 18 19  2  0
 19 20  1  0
 20 21  2  0
 21 22  1  0
 22 23  1  0
 23 24  1  0
 24 25  2  0
 25 26  1  0
 26 27  2  0
 27 28  1  0
 28 29  2  0
 22 30  2  0
 16 31  1  0
 31 32  1  0
 32 13  1  0
 30 18  1  0
 29 24  1  0
M  END
$$$$

     RDKit          2D

 28 29  0  0  0  0  0  0  0  0999 V2000
    3.0000   -5.1962    0.0000 O   0  0  0  0  0  0  0  0  0  0  0  0
    1.5000   -5.1962    0.0000 C   0  0  0  0  0  0  0  0  0  0  0  0
    0.7500   -3.8971    0.0000 N   0  0  0  0  0  0  0  0  0  0  0  0
    1.5000   -2.5981    0.0000 C   0  0  0  0  0  0  0  0  0  0  0  0
    3.0000   -2.5981    0.0000 O   0  0  0  0  0  0  0  0  0  0  0  0
    0.7500   -1.2990    0.0000 C   0  0  0  0  0  0  0  0  0  0  0  0
    1.5000    0.0000    0.0000 C   0  0  0  0  0  0  0  0  0  0  0  0
    3.0000    0.0000    0.0000 F   0  0  0  0  0  0  0  0  0  0  0  0
    0.7500    1.2990    0.0000 C   0  0  0  0  0  0  0  0  0  0  0  0
   -0.7500    1.2990    0.0000 C   0  0  0  0  0  0  0  0  0  0  0  0
   -1.5000    0.0000    0.0000 C   0  0  0  0  0  0  0  0  0  0  0  0
   -0.7500   -1.2990    0.0000 C   0  0  0  0  0  0  0  0  0  0  0  0
   -1.5000   -2.5981    0.0000 F   0  0  0  0  0  0  0  0  0  0  0  0
    0.7500   -6.4952    0.0000 N   0  0  0  0  0  0  0  0  0  0  0  0
    1.5000   -7.7942    0.0000 C   0  0  0  0  0  0  0  0  0  0  0  0
    0.7500   -9.0933    0.0000 C   0  0  0  0  0  0  0  0  0  0  0  0
    1.5000  -10.3923    0.0000 C   0  0  0  0  0  0  0  0  0  0  0  0
    3.0000  -10.3923    0.0000 C   0  0  0  0  0  0  0  0  0  0  0  0
    3.7500  -11.6913    0.0000 S   0  0  0  0  0  0  0  0  0  0  0  0
    3.0000  -12.9904    0.0000 C   0  0  0  0  0  0  0  0  0  0  0  0
    1.7010  -12.2404    0.0000 F   0  0  0  0  0  0  0  0  0  0  0  0
    2.2500  -14.2894    0.0000 F   0  0  0  0  0  0  0  0  0  0  0  0
    4.2990  -13.7404    0.0000 C   0  0  0  0  0  0  0  0  0  0  0  0
    4.2990  -15.2404    0.0000 F   0  0  0  0  0  0  0  0  0  0  0  0
    5.5981  -12.9904    0.0000 F   0  0  0  0  0  0  0  0  0  0  0  0
    3.7500   -9.0933    0.0000 C   0  0  0  0  0  0  0  0  0  0  0  0
    5.2500   -9.0933    0.0000 Cl  0  0  0  0  0  0  0  0  0  0  0  0
    3.0000   -7.7942    0.0000 C   0  0  0  0  0  0  0  0  0  0  0  0
  1  2  2  0
  2  3  1  0
  3  4  1  0
  4  5  2  0
  4  6  1  0
  6  7  2  0
  7  8  1  0
  7  9  1  0
  9 10  2  0
 10 11  1  0
 11 12  2  0
 12 13  1  0
  2 14  1  0
 14 15  1  0
 15 16  2  0
 16 17  1  0
 17 18  2  0
 18 19  1  0
 19 20  1  0
 20 21  1  0
 20 22  1  0
 20 23  1  0
 23 24  1  0
 23 25  1  0
 18 26  1  0
 26 27  1  0
 26 28  2  0
 12  6  1  0
 28 15  1  0
M  END
$$$$

     RDKit          2D

 16 16  0  0  0  0  0  0  0  0999 V2000
    3.0000    0.0000    0.0000 N   0  0  0  0  0  0  0  0  0  0  0  0
    1.5000    0.0000    0.0000 C   0  0  0  0  0  0  0  0  0  0  0  0
    0.7500   -1.2990    0.0000 C   0  0  0  0  0  0  0  0  0  0  0  0
   -0.7500   -1.2990    0.0000 C   0  0  0  0  0  0  0  0  0  0  0  0
   -1.5000    0.0000    0.0000 C   0  0  0  0  0  0  0  0  0  0  0  0
   -3.0000    0.0000    0.0000 S   0  0  0  0  0  0  0  0  0  0  0  0
   -3.7500    1.2990    0.0000 C   0  0  0  0  0  0  0  0  0  0  0  0
   -2.4510    2.0490    0.0000 F   0  0  0  0  0  0  0  0  0  0  0  0
   -4.5000    2.5981    0.0000 F   0  0  0  0  0  0  0  0  0  0  0  0
   -5.0490    0.5490    0.0000 C   0  0  0  0  0  0  0  0  0  0  0  0
   -6.3481    1.2990    0.0000 F   0  0  0  0  0  0  0  0  0  0  0  0
   -5.0490   -0.9510    0.0000 F   0  0  0  0  0  0  0  0  0  0  0  0
   -0.7500    1.2990    0.0000 C   0  0  0  0  0  0  0  0  0  0  0  0
   -1.5000    2.5981    0.0000 Cl  0  0  0  0  0  0  0  0  0  0  0  0
    0.7500    1.2990    0.0000 C   0  0  0  0  0  0  0  0  0  0  0  0
    1.5000    2.5981    0.0000 Cl  0  0  0  0  0  0  0  0  0  0  0  0
  1  2  1  0
  2  3  2  0
  3  4  1  0
  4  5  2  0
  5  6  1  0
  6  7  1  0
  7  8  1  0
  7  9  1  0
  7 10  1  0
 10 11  1  0
 10 12  1  0
  5 13  1  0
 13 14  1  0
 13 15  2  0
 15 16  1  0
 15  2  1  0
M  END
$$$$

     RDKit          2D

 30 31  0  0  0  0  0  0  0  0999 V2000
    3.0000    0.0000    0.0000 C   0  0  0  0  0  0  0  0  0  0  0  0
    1.5000    0.0000    0.0000 C   0  0  0  0  0  0  0  0  0  0  0  0
    0.7500   -1.2990    0.0000 C   0  0  0  0  0  0  0  0  0  0  0  0
   -0.7500   -1.2990    0.0000 C   0  0  0  0  0  0  0  0  0  0  0  0
   -1.5000   -2.5981    0.0000 S   0  0  0  0  0  0  0  0  0  0  0  0
   -2.7990   -1.8481    0.0000 O   0  0  0  0  0  0  0  0  0  0  0  0
   -0.1192   -3.1841    0.0000 O   0  0  0  0  0  0  0  0  0  0  0  0
   -2.2500   -3.8971    0.0000 C   0  0  0  0  0  0  0  0  0  0  0  0
   -3.5490   -3.1471    0.0000 F   0  0  0  0  0  0  0  0  0  0  0  0
   -3.0000   -5.1962    0.0000 F   0  0  0  0  0  0  0  0  0  0  0  0
   -0.9510   -4.6471    0.0000 C   0  0  0  0  0  0  0  0  0  0  0  0
    0.4298   -4.0611    0.0000 F   0  0  0  0  0  0  0  0  0  0  0  0
   -0.9510   -6.1471    0.0000 F   0  0  0  0  0  0  0  0  0  0  0  0
   -1.5000    0.0000    0.0000 C   0  0  0  0  0  0  0  0  0  0  0  0
   -0.7500    1.2990    0.0000 C   0  0  0  0  0  0  0  0  0  0  0  0
    0.7500    1.2990    0.0000 C   0  0  0  0  0  0  0  0  0  0  0  0
    1.5000    2.5981    0.0000 N   0  0  0  0  0  0  0  0  0  0  0  0
    0.7500    3.8971    0.0000 C   0  0  0  0  0  0  0  0  0  0  0  0
   -0.7500    3.8971    0.0000 O   0  0  0  0  0  0  0  0  0  0  0  0
    1.5000    5.1962    0.0000 N   0  0  0  0  0  0  0  0  0  0  0  0
    0.7500    6.4952    0.0000 C   0  0  0  0  0  0  0  0  0  0  0  0
   -0.7500    6.4952    0.0000 O   0  0  0  0  0  0  0  0  0  0  0  0
    1.5000    7.7942    0.0000 C   0  0  0  0  0  0  0  0  0  0  0  0
    3.0000    7.7942    0.0000 C   0  0  0  0  0  0  0  0  0  0  0  0
    3.7500    6.4952    0.0000 F   0  0  0  0  0  0  0  0  0  0  0  0
    3.7500    9.0933    0.0000 C   0  0  0  0  0  0  0  0  0  0  0  0
    3.0000   10.3923    0.0000 C   0  0  0  0  0  0  0  0  0  0  0  0
    1.5000   10.3923    0.0000 C   0  0  0  0  0  0  0  0  0  0  0  0
    0.7500    9.0933    0.0000 C   0  0  0  0  0  0  0  0  0  0  0  0
   -0.7500    9.0933    0.0000 F   0  0  0  0  0  0  0  0  0  0  0  0
  1  2  1  0
  2  3  2  0
  3  4  1  0
  4  5  1  0
  5  6  2  0
  5  7  2  0
  5  8  1  0
  8  9  1  0
  8 10  1  0
  8 11  1  0
 11 12  1  0
 11 13  1  0
  4 14  2  0
 14 15  1  0
 15 16  2  0
 16 17  1  0
 17 18  1  0
 18 19  2  0
 18 20  1  0
 20 21  1  0
 21 22  2  0
 21 23  1  0
 23 24  2  0
 24 25  1  0
 24 26  1  0
 26 27  2  0
 27 28  1  0
 28 29  2  0
 29 30  1  0
 16  2  1  0
 29 23  1  0
M  END
$$$$

     RDKit          2D

 30 31  0  0  0  0  0  0  0  0999 V2000
    3.0000   -5.1962    0.0000 O   0  0  0  0  0  0  0  0  0  0  0  0
    1.5000   -5.1962    0.0000 C   0  0  0  0  0  0  0  0  0  0  0  0
    0.7500   -3.8971    0.0000 N   0  0  0  0  0  0  0  0  0  0  0  0
    1.5000   -2.5981    0.0000 C   0  0  0  0  0  0  0  0  0  0  0  0
    3.0000   -2.5981    0.0000 O   0  0  0  0  0  0  0  0  0  0  0  0
    0.7500   -1.2990    0.0000 C   0  0  0  0  0  0  0  0  0  0  0  0
    1.5000    0.0000    0.0000 C   0  0  0  0  0  0  0  0  0  0  0  0
    3.0000    0.0000    0.0000 F   0  0  0  0  0  0  0  0  0  0  0  0
    0.7500    1.2990    0.0000 C   0  0  0  0  0  0  0  0  0  0  0  0
   -0.7500    1.2990    0.0000 C   0  0  0  0  0  0  0  0  0  0  0  0
   -1.5000    0.0000    0.0000 C   0  0  0  0  0  0  0  0  0  0  0  0
   -0.7500   -1.2990    0.0000 C   0  0  0  0  0  0  0  0  0  0  0  0
   -1.5000   -2.5981    0.0000 F   0  0  0  0  0  0  0  0  0  0  0  0
    0.7500   -6.4952    0.0000 N   0  0  0  0  0  0  0  0  0  0  0  0
    1.5000   -7.7942    0.0000 C   0  0  0  0  0  0  0  0  0  0  0  0
    0.7500   -9.0933    0.0000 C   0  0  0  0  0  0  0  0  0  0  0  0
    1.5000  -10.3923    0.0000 C   0  0  0  0  0  0  0  0  0  0  0  0
    3.0000  -10.3923    0.0000 C   0  0  0  0  0  0  0  0  0  0  0  0
    3.7500  -11.6913    0.0000 S   0  0  0  0  0  0  0  0  0  0  0  0
    2.3692  -12.2774    0.0000 O   0  0  0  0  0  0  0  0  0  0  0  0
    5.0490  -10.9413    0.0000 O   0  0  0  0  0  0  0  0  0  0  0  0
    4.5000  -12.9904    0.0000 C   0  0  0  0  0  0  0  0  0  0  0  0
    5.7990  -12.2404    0.0000 F   0  0  0  0  0  0  0  0  0  0  0  0
    5.2500  -14.2894    0.0000 F   0  0  0  0  0  0  0  0  0  0  0  0
    3.2010  -13.7404    0.0000 C   0  0  0  0  0  0  0  0  0  0  0  0
    3.2010  -15.2404    0.0000 F   0  0  0  0  0  0  0  0  0  0  0  0
    1.8202  -13.1543    0.0000 F   0  0  0  0  0  0  0  0  0  0  0  0
    3.7500   -9.0933    0.0000 C   0  0  0  0  0  0  0  0  0  0  0  0
    3.0000   -7.7942    0.0000 C   0  0  0  0  0  0  0  0  0  0  0  0
    3.7500   -6.4952    0.0000 Br  0  0  0  0  0  0  0  0  0  0  0  0
  1  2  2  0
  2  3  1  0
  3  4  1  0
  4  5  2  0
  4  6  1  0
  6  7  2  0
  7  8  1  0
  7  9  1  0
  9 10  2  0
 10 11  1  0
 11 12  2  0
 12 13  1  0
  2 14  1  0
 14 15  1  0
 15 16  2  0
 16 17  1  0
 17 18  2  0
 18 19  1  0
 19 20  2  0
 19 21  2  0
 19 22  1  0
 22 23  1  0
 22 24  1  0
 22 25  1  0
 25 26  1  0
 25 27  1  0
 18 28  1  0
 28 29  2  0
 29 30  1  0
 12  6  1  0
 29 15  1  0
M  END
$$$$

     RDKit          2D

 31 31  0  0  0  0  0  0  0  0999 V2000
    3.0000   -1.5000    0.0000 C   0  0  0  0  0  0  0  0  0  0  0  0
    3.0000    0.0000    0.0000 C   0  0  0  0  0  0  0  0  0  0  0  0
    3.0000    1.5000    0.0000 C   0  0  0  0  0  0  0  0  0  0  0  0
    4.5000    0.0000    0.0000 C   0  0  0  0  0  0  0  0  0  0  0  0
    1.5000    0.0000    0.0000 C   0  0  0  0  0  0  0  0  0  0  0  0
    0.7500   -1.2990    0.0000 C   0  0  0  0  0  0  0  0  0  0  0  0
   -0.7500   -1.2990    0.0000 C   0  0  0  0  0  0  0  0  0  0  0  0
   -1.5000   -2.5981    0.0000 C   0  0  0  0  0  0  0  0  0  0  0  0
   -0.2010   -3.3481    0.0000 O   0  0  0  0  0  0  0  0  0  0  0  0
   -2.2500   -3.8971    0.0000 C   0  0  0  0  0  0  0  0  0  0  0  0
   -3.0000   -5.1962    0.0000 F   0  0  0  0  0  0  0  0  0  0  0  0
   -0.9510   -4.6471    0.0000 F   0  0  0  0  0  0  0  0  0  0  0  0
   -3.0653   -3.5511    0.0000 F   0  0  0  0  0  0  0  0  0  0  0  0
   -2.7990   -1.8481    0.0000 C   0  0  0  0  0  0  0  0  0  0  0  0
   -4.0981   -1.0981    0.0000 F   0  0  0  0  0  0  0  0  0  0  0  0
   -3.3321   -2.5554    0.0000 F   0  0  0  0  0  0  0  0  0  0  0  0
   -2.5549   -0.9966    0.0000 F   0  0  0  0  0  0  0  0  0  0  0  0
   -1.5000    0.0000    0.0000 C   0  0  0  0  0  0  0  0  0  0  0  0
   -2.3857    0.0000    0.0000 I   0  0  0  0  0  0  0  0  0  0  0  0
   -0.7500    1.2990    0.0000 C   0  0  0  0  0  0  0  0  0  0  0  0
   -1.5000    2.5981    0.0000 C   0  0  0  0  0  0  0  0  0  0  0  0
   -2.7990    1.8481    0.0000 O   0  0  0  0  0  0  0  0  0  0  0  0
   -2.2500    3.8971    0.0000 C   0  0  0  0  0  0  0  0  0  0  0  0
   -3.0000    5.1962    0.0000 F   0  0  0  0  0  0  0  0  0  0  0  0
   -3.5490    3.1471    0.0000 F   0  0  0  0  0  0  0  0  0  0  0  0
   -1.5426    4.4302    0.0000 F   0  0  0  0  0  0  0  0  0  0  0  0
   -0.2010    3.3481    0.0000 C   0  0  0  0  0  0  0  0  0  0  0  0
    1.0981    4.0981    0.0000 F   0  0  0  0  0  0  0  0  0  0  0  0
   -0.5470    4.1634    0.0000 F   0  0  0  0  0  0  0  0  0  0  0  0
    0.8411    2.2691    0.0000 F   0  0  0  0  0  0  0  0  0  0  0  0
    0.7500    1.2990    0.0000 C   0  0  0  0  0  0  0  0  0  0  0  0
  1  2  1  0
  2  3  1  0
  2  4  1  0
  2  5  1  0
  5  6  2  0
  6  7  1  0
  7  8  1  0
  8  9  1  0
  8 10  1  0
 10 11  1  0
 10 12  1  0
 10 13  1  0
  8 14  1  0
 14 15  1  0
 14 16  1  0
 14 17  1  0
  7 18  2  0
 18 19  1  0
 18 20  1  0
 20 21  1  0
 21 22  1  0
 21 23  1  0
 23 24  1  0
 23 25  1  0
 23 26  1  0
 21 27  1  0
 27 28  1  0
 27 29  1  0
 27 30  1  0
 20 31  2  0
 31  5  1  0
M  END
$$$$

     RDKit          2D

 18 17  0  0  0  0  0  0  0  0999 V2000
    0.0000    0.0000    0.0000 C   0  0  0  0  0  0  0  0  0  0  0  0
    1.2990    0.7500    0.0000 C   0  0  0  0  0  0  0  0  0  0  0  0
    1.2990    2.2500    0.0000 O   0  0  0  0  0  0  0  0  0  0  0  0
    2.5981   -0.0000    0.0000 C   0  0  0  0  0  0  0  0  0  0  0  0
    3.8971    0.7500    0.0000 C   0  0  0  0  0  0  0  0  0  0  0  0
    5.1962   -0.0000    0.0000 C   0  0  0  0  0  0  0  0  0  0  0  0
    5.1962   -1.5000    0.0000 O   0  0  0  0  0  0  0  0  0  0  0  0
    6.4952    0.7500    0.0000 C   0  0  0  0  0  0  0  0  0  0  0  0
    7.7942   -0.0000    0.0000 C   0  0  0  0  0  0  0  0  0  0  0  0
    7.0442   -1.2990    0.0000 O   0  0  0  0  0  0  0  0  0  0  0  0
    9.0933   -0.7500    0.0000 C   0  0  0  0  0  0  0  0  0  0  0  0
   10.3923   -1.5000    0.0000 F   0  0  0  0  0  0  0  0  0  0  0  0
    9.6263   -0.0426    0.0000 F   0  0  0  0  0  0  0  0  0  0  0  0
    8.3433   -2.0490    0.0000 F   0  0  0  0  0  0  0  0  0  0  0  0
    8.5442    1.2990    0.0000 C   0  0  0  0  0  0  0  0  0  0  0  0
    9.2942    2.5981    0.0000 F   0  0  0  0  0  0  0  0  0  0  0  0
    9.3596    0.9530    0.0000 F   0  0  0  0  0  0  0  0  0  0  0  0
    7.2452    2.0490    0.0000 F   0  0  0  0  0  0  0  0  0  0  0  0
  1  2  1  0
  2  3  2  0
  2  4  1  0
  4  5  1  0
  5  6  1  0
  6  7  2  0
  6  8  1  0
  8  9  1  0
  9 10  1  0
  9 11  1  0
 11 12  1  0
 11 13  1  0
 11 14  1  0
  9 15  1  0
 15 16  1  0
 15 17  1  0
 15 18  1  0
M  END
$$$$

     RDKit          2D

 17 16  0  0  0  0  0  0  0  0999 V2000
    0.0000    0.0000    0.0000 C   0  0  0  0  0  0  0  0  0  0  0  0
    1.2990    0.7500    0.0000 C   0  0  0  0  0  0  0  0  0  0  0  0
    1.2990    2.2500    0.0000 O   0  0  0  0  0  0  0  0  0  0  0  0
    2.5981   -0.0000    0.0000 C   0  0  0  0  0  0  0  0  0  0  0  0
    3.8971    0.7500    0.0000 C   0  0  0  0  0  0  0  0  0  0  0  0
    3.8971    2.2500    0.0000 O   0  0  0  0  0  0  0  0  0  0  0  0
    5.1962   -0.0000    0.0000 C   0  0  0  0  0  0  0  0  0  0  0  0
    6.4952    0.7500    0.0000 C   0  0  0  0  0  0  0  0  0  0  0  0
    5.7452    2.0490    0.0000 O   0  0  0  0  0  0  0  0  0  0  0  0
    7.7942    1.5000    0.0000 C   0  0  0  0  0  0  0  0  0  0  0  0
    9.0933    2.2500    0.0000 F   0  0  0  0  0  0  0  0  0  0  0  0
    7.0442    2.7990    0.0000 F   0  0  0  0  0  0  0  0  0  0  0  0
    8.3273    0.7926    0.0000 F   0  0  0  0  0  0  0  0  0  0  0  0
    7.2452   -0.5490    0.0000 C   0  0  0  0  0  0  0  0  0  0  0  0
    7.9952   -1.8481    0.0000 F   0  0  0  0  0  0  0  0  0  0  0  0
    8.0605   -0.2030    0.0000 F   0  0  0  0  0  0  0  0  0  0  0  0
    5.9462   -1.2990    0.0000 F   0  0  0  0  0  0  0  0  0  0  0  0
  1  2  1  0
  2  3  2  0
  2  4  1  0
  4  5  1  0
  5  6  2  0
  5  7  1  0
  7  8  1  0
  8  9  1  0
  8 10  1  0
 10 11  1  0
 10 12  1  0
 10 13  1  0
  8 14  1  0
 14 15  1  0
 14 16  1  0
 14 17  1  0
M  END
$$$$

     RDKit          2D

 38 35  0  0  0  0  0  0  0  0999 V2000
    0.0000    0.0000    0.0000 C   0  0  0  0  0  0  0  0  0  0  0  0
    1.2990    0.7500    0.0000 C   0  0  0  0  0  0  0  0  0  0  0  0
    2.5981   -0.0000    0.0000 N   0  0  0  0  0  0  0  0  0  0  0  0
    3.8971    0.7500    0.0000 C   0  0  0  0  0  0  0  0  0  0  0  0
    5.1962   -0.0000    0.0000 C   0  0  0  0  0  0  0  0  0  0  0  0
    2.5981   -1.5000    0.0000 C   0  0  0  0  0  0  0  0  0  0  0  0
    3.8971   -2.2500    0.0000 C   0  0  0  0  0  0  0  0  0  0  0  0
    0.0000    4.0000    0.0000 C   0  0  0  0  0  0  0  0  0  0  0  0
    1.2990    4.7500    0.0000 C   0  0  0  0  0  0  0  0  0  0  0  0
    2.5981    4.0000    0.0000 N   0  0  0  0  0  0  0  0  0  0  0  0
    3.8971    4.7500    0.0000 C   0  0  0  0  0  0  0  0  0  0  0  0
    5.1962    4.0000    0.0000 C   0  0  0  0  0  0  0  0  0  0  0  0
    2.5981    2.5000    0.0000 C   0  0  0  0  0  0  0  0  0  0  0  0
    3.8971    1.7500    0.0000 C   0  0  0  0  0  0  0  0  0  0  0  0
   11.3923    2.2500    0.0000 O   0  0  0  0  0  0  0  0  0  0  0  0
   11.3923    0.7500    0.0000 C   0  0  0  0  0  0  0  0  0  0  0  0
   12.6913    0.0000    0.0000 C   0  0  0  0  0  0  0  0  0  0  0  0
   13.9904    0.7500    0.0000 C   0  0  0  0  0  0  0  0  0  0  0  0
   13.2404    2.0490    0.0000 O   0  0  0  0  0  0  0  0  0  0  0  0
   15.2894    1.5000    0.0000 C   0  0  0  0  0  0  0  0  0  0  0  0
   16.5885    2.2500    0.0000 F   0  0  0  0  0  0  0  0  0  0  0  0
   14.5394    2.7990    0.0000 F   0  0  0  0  0  0  0  0  0  0  0  0
   15.8225    0.7926    0.0000 F   0  0  0  0  0  0  0  0  0  0  0  0
   14.7404   -0.5490    0.0000 C   0  0  0  0  0  0  0  0  0  0  0  0
   15.4904   -1.8481    0.0000 F   0  0  0  0  0  0  0  0  0  0  0  0
   15.5557   -0.2030    0.0000 F   0  0  0  0  0  0  0  0  0  0  0  0
   13.4413   -1.2990    0.0000 F   0  0  0  0  0  0  0  0  0  0  0  0
   10.0933    0.0000    0.0000 C   0  0  0  0  0  0  0  0  0  0  0  0
    8.7942    0.7500    0.0000 C   0  0  0  0  0  0  0  0  0  0  0  0
    9.5442    2.0490    0.0000 O   0  0  0  0  0  0  0  0  0  0  0  0
    7.4952    1.5000    0.0000 C   0  0  0  0  0  0  0  0  0  0  0  0
    6.1962    2.2500    0.0000 F   0  0  0  0  0  0  0  0  0  0  0  0
    8.2452    2.7990    0.0000 F   0  0  0  0  0  0  0  0  0  0  0  0
    6.9621    0.7926    0.0000 F   0  0  0  0  0  0  0  0  0  0  0  0
    8.0442   -0.5490    0.0000 C   0  0  0  0  0  0  0  0  0  0  0  0
    7.2942   -1.8481    0.0000 F   0  0  0  0  0  0  0  0  0  0  0  0
    7.2289   -0.2030    0.0000 F   0  0  0  0  0  0  0  0  0  0  0  0
    9.3433   -1.2990    0.0000 F   0  0  0  0  0  0  0  0  0  0  0  0
  1  2  1  0
  2  3  1  0
  3  4  1  0
  4  5  1  0
  3  6  1  0
  6  7  1  0
  8  9  1  0
  9 10  1  0
 10 11  1  0
 11 12  1  0
 10 13  1  0
 13 14  1  0
 15 16  2  0
 16 17  1  0
 17 18  1  0
 18 19  1  0
 18 20  1  0
 20 21  1  0
 20 22  1  0
 20 23  1  0
 18 24  1  0
 24 25  1  0
 24 26  1  0
 24 27  1  0
 16 28  1  0
 28 29  1  0
 29 30  1  0
 29 31  1  0
 31 32  1  0
 31 33  1  0
 31 34  1  0
 29 35  1  0
 35 36  1  0
 35 37  1  0
 35 38  1  0
M  CHG  4   3   1  10   1  19  -1  30  -1
M  END
$$$$

     RDKit          2D

 15 14  0  0  0  0  0  0  0  0999 V2000
    1.2990    2.2500    0.0000 O   0  0  0  0  0  0  0  0  0  0  0  0
    1.2990    0.7500    0.0000 C   0  0  0  0  0  0  0  0  0  0  0  0
    0.0000    0.0000    0.0000 C   0  0  0  0  0  0  0  0  0  0  0  0
   -1.2990    0.7500    0.0000 Br  0  0  0  0  0  0  0  0  0  0  0  0
    2.5981   -0.0000    0.0000 C   0  0  0  0  0  0  0  0  0  0  0  0
    3.8971    0.7500    0.0000 C   0  0  0  0  0  0  0  0  0  0  0  0
    3.1471    2.0490    0.0000 O   0  0  0  0  0  0  0  0  0  0  0  0
    5.1962    1.5000    0.0000 C   0  0  0  0  0  0  0  0  0  0  0  0
    6.4952    2.2500    0.0000 F   0  0  0  0  0  0  0  0  0  0  0  0
    5.7292    0.7926    0.0000 F   0  0  0  0  0  0  0  0  0  0  0  0
    4.4462    2.7990    0.0000 F   0  0  0  0  0  0  0  0  0  0  0  0
    4.6471   -0.5490    0.0000 C   0  0  0  0  0  0  0  0  0  0  0  0
    5.3971   -1.8481    0.0000 F   0  0  0  0  0  0  0  0  0  0  0  0
    5.4624   -0.2030    0.0000 F   0  0  0  0  0  0  0  0  0  0  0  0
    3.3481   -1.2990    0.0000 F   0  0  0  0  0  0  0  0  0  0  0  0
  1  2  2  0
  2  3  1  0
  3  4  1  0
  2  5  1  0
  5  6  1  0
  6  7  1  0
  6  8  1  0
  8  9  1  0
  8 10  1  0
  8 11  1  0
  6 12  1  0
 12 13  1  0
 12 14  1  0
 12 15  1  0
M  END
$$$$

     RDKit          2D

 20 21  0  0  0  0  0  0  0  0999 V2000
   -2.0490   -4.5583    0.0000 O   0  0  0  0  0  0  0  0  0  0  0  0
   -1.2990   -5.8573    0.0000 C   0  0  0  0  0  0  0  0  0  0  0  0
   -0.0000   -5.1073    0.0000 C   0  0  0  0  0  0  0  0  0  0  0  0
   -0.0000   -3.6073    0.0000 C   0  0  0  0  0  0  0  0  0  0  0  0
    1.2135   -2.7256    0.0000 N   0  0  0  0  0  0  0  0  0  0  0  0
    0.7500   -1.2990    0.0000 C   0  0  0  0  0  0  0  0  0  0  0  0
    1.5000    0.0000    0.0000 C   0  0  0  0  0  0  0  0  0  0  0  0
    0.7500    1.2990    0.0000 C   0  0  0  0  0  0  0  0  0  0  0  0
   -0.7500    1.2990    0.0000 C   0  0  0  0  0  0  0  0  0  0  0  0
   -1.5000    0.0000    0.0000 C   0  0  0  0  0  0  0  0  0  0  0  0
   -0.7500   -1.2990    0.0000 C   0  0  0  0  0  0  0  0  0  0  0  0
   -1.2135   -2.7256    0.0000 S   0  0  0  0  0  0  0  0  0  0  0  0
   -2.5981   -6.6073    0.0000 C   0  0  0  0  0  0  0  0  0  0  0  0
   -3.8971   -7.3573    0.0000 F   0  0  0  0  0  0  0  0  0  0  0  0
   -3.3481   -5.3083    0.0000 F   0  0  0  0  0  0  0  0  0  0  0  0
   -2.2520   -7.4226    0.0000 F   0  0  0  0  0  0  0  0  0  0  0  0
   -0.5490   -7.1563    0.0000 C   0  0  0  0  0  0  0  0  0  0  0  0
    0.2010   -8.4554    0.0000 F   0  0  0  0  0  0  0  0  0  0  0  0
   -1.2564   -7.6894    0.0000 F   0  0  0  0  0  0  0  0  0  0  0  0
    0.7500   -6.4063    0.0000 F   0  0  0  0  0  0  0  0  0  0  0  0
  1  2  1  0
  2  3  1  0
  3  4  1  0
  4  5  2  0
  5  6  1  0
  6  7  2  0
  7  8  1  0
  8  9  2  0
  9 10  1  0
 10 11  2  0
 11 12  1  0
  2 13  1  0
 13 14  1  0
 13 15  1  0
 13 16  1  0
  2 17  1  0
 17 18  1  0
 17 19  1  0
 17 20  1  0
 12  4  1  0
 11  6  1  0
M  END
$$$$

     RDKit          2D

 25 24  0  0  0  0  0  0  0  0999 V2000
    0.0000    0.0000    0.0000 C   0  0  0  0  0  0  0  0  0  0  0  0
    1.2990    0.7500    0.0000 Si  0  0  0  0  0  4  0  0  0  0  0  0
    2.5981    1.5000    0.0000 C   0  0  0  0  0  0  0  0  0  0  0  0
    0.5490    2.0490    0.0000 Cl  0  0  0  0  0  0  0  0  0  0  0  0
    2.0490   -0.5490    0.0000 C   0  0  0  0  0  0  0  0  0  0  0  0
    3.5490   -0.5490    0.0000 C   0  0  0  0  0  0  0  0  0  0  0  0
    4.2990   -1.8481    0.0000 C   0  0  0  0  0  0  0  0  0  0  0  0
    5.5981   -1.0981    0.0000 F   0  0  0  0  0  0  0  0  0  0  0  0
    3.0000   -2.5981    0.0000 F   0  0  0  0  0  0  0  0  0  0  0  0
    5.0490   -3.1471    0.0000 C   0  0  0  0  0  0  0  0  0  0  0  0
    3.7500   -3.8971    0.0000 F   0  0  0  0  0  0  0  0  0  0  0  0
    6.3481   -2.3971    0.0000 F   0  0  0  0  0  0  0  0  0  0  0  0
    5.7990   -4.4462    0.0000 C   0  0  0  0  0  0  0  0  0  0  0  0
    7.0981   -3.6962    0.0000 F   0  0  0  0  0  0  0  0  0  0  0  0
    4.5000   -5.1962    0.0000 F   0  0  0  0  0  0  0  0  0  0  0  0
    6.5490   -5.7452    0.0000 C   0  0  0  0  0  0  0  0  0  0  0  0
    5.2500   -6.4952    0.0000 F   0  0  0  0  0  0  0  0  0  0  0  0
    7.8481   -4.9952    0.0000 F   0  0  0  0  0  0  0  0  0  0  0  0
    7.2990   -7.0442    0.0000 C   0  0  0  0  0  0  0  0  0  0  0  0
    8.5981   -6.2942    0.0000 F   0  0  0  0  0  0  0  0  0  0  0  0
    6.0000   -7.7942    0.0000 F   0  0  0  0  0  0  0  0  0  0  0  0
    8.0490   -8.3433    0.0000 C   0  0  0  0  0  0  0  0  0  0  0  0
    8.7990   -9.6423    0.0000 F   0  0  0  0  0  0  0  0  0  0  0  0
    6.7500   -9.0933    0.0000 F   0  0  0  0  0  0  0  0  0  0  0  0
    9.3481   -7.5933    0.0000 F   0  0  0  0  0  0  0  0  0  0  0  0
  1  2  1  0
  2  3  1  0
  2  4  1  0
  2  5  1  0
  5  6  1  0
  6  7  1  0
  7  8  1  0
  7  9  1  0
  7 10  1  0
 10 11  1  0
 10 12  1  0
 10 13  1  0
 13 14  1  0
 13 15  1  0
 13 16  1  0
 16 17  1  0
 16 18  1  0
 16 19  1  0
 19 20  1  0
 19 21  1  0
 19 22  1  0
 22 23  1  0
 22 24  1  0
 22 25  1  0
M  END
$$$$

     RDKit          2D

 36 39  0  0  0  0  0  0  0  0999 V2000
   -4.2164   -2.1363    0.0000 C   0  0  0  0  0  0  0  0  0  0  0  0
   -3.2127   -3.2511    0.0000 C   0  0  0  0  0  0  0  0  0  0  0  0
   -1.7455   -2.9392    0.0000 C   0  0  0  0  0  0  0  0  0  0  0  0
   -0.7418   -4.0539    0.0000 C   0  0  0  0  0  0  0  0  0  0  0  0
   -1.0537   -5.5211    0.0000 N   0  0  0  0  0  0  0  0  0  0  0  0
    0.2454   -6.2711    0.0000 C   0  0  0  0  0  0  0  0  0  0  0  0
    0.4022   -7.7629    0.0000 C   0  0  0  0  0  0  0  0  0  0  0  0
   -1.0896   -7.9197    0.0000 F   0  0  0  0  0  0  0  0  0  0  0  0
    1.8940   -7.6061    0.0000 F   0  0  0  0  0  0  0  0  0  0  0  0
    0.5590   -9.2547    0.0000 C   0  0  0  0  0  0  0  0  0  0  0  0
    0.7158  -10.7465    0.0000 F   0  0  0  0  0  0  0  0  0  0  0  0
    2.0508   -9.0979    0.0000 F   0  0  0  0  0  0  0  0  0  0  0  0
   -0.9328   -9.4115    0.0000 F   0  0  0  0  0  0  0  0  0  0  0  0
    1.3601   -5.2674    0.0000 C   0  0  0  0  0  0  0  0  0  0  0  0
    2.8273   -5.5793    0.0000 C   0  0  0  0  0  0  0  0  0  0  0  0
    3.8310   -4.4646    0.0000 O   0  0  0  0  0  0  0  0  0  0  0  0
    3.2909   -7.0059    0.0000 O   0  0  0  0  0  0  0  0  0  0  0  0
    0.7500   -3.8971    0.0000 N   0  0  0  0  0  0  0  0  0  0  0  0
    1.5000   -2.5981    0.0000 C   0  0  0  0  0  0  0  0  0  0  0  0
    0.7500   -1.2990    0.0000 C   0  0  0  0  0  0  0  0  0  0  0  0
    1.5000    0.0000    0.0000 C   0  0  0  0  0  0  0  0  0  0  0  0
    0.7500    1.2990    0.0000 C   0  0  0  0  0  0  0  0  0  0  0  0
   -0.7500    1.2990    0.0000 C   0  0  0  0  0  0  0  0  0  0  0  0
   -1.5000    2.5981    0.0000 C   0  0  0  0  0  0  0  0  0  0  0  0
   -0.7500    3.8971    0.0000 C   0  0  0  0  0  0  0  0  0  0  0  0
   -1.5000    5.1962    0.0000 C   0  0  0  0  0  0  0  0  0  0  0  0
   -3.0000    5.1962    0.0000 C   0  0  0  0  0  0  0  0  0  0  0  0
   -3.7500    3.8971    0.0000 C   0  0  0  0  0  0  0  0  0  0  0  0
   -3.0000    2.5981    0.0000 C   0  0  0  0  0  0  0  0  0  0  0  0
   -3.7500    1.2990    0.0000 C   0  0  0  0  0  0  0  0  0  0  0  0
   -3.1399   -0.0713    0.0000 N   0  0  0  0  0  0  0  0  0  0  0  0
   -4.2546   -1.0750    0.0000 N   0  0  0  0  0  0  0  0  0  0  0  0
   -5.5537   -0.3250    0.0000 N   0  0  0  0  0  0  0  0  0  0  0  0
   -5.2418    1.1422    0.0000 N   0  0  0  0  0  0  0  0  0  0  0  0
   -1.5000    0.0000    0.0000 C   0  0  0  0  0  0  0  0  0  0  0  0
   -0.7500   -1.2990    0.0000 C   0  0  0  0  0  0  0  0  0  0  0  0
  1  2  1  0
  2  3  1  0
  3  4  1  0
  4  5  2  0
  5  6  1  0
  6  7  1  0
  7  8  1  0
  7  9  1  0
  7 10  1  0
 10 11  1  0
 10 12  1  0
 10 13  1  0
  6 14  2  0
 14 15  1  0
 15 16  2  0
 15 17  1  0
 14 18  1  0
 18 19  1  0
 19 20  1  0
 20 21  2  0
 21 22  1  0
 22 23  2  0
 23 24  1  0
 24 25  2  0
 25 26  1  0
 26 27  2  0
 27 28  1  0
 28 29  2  0
 29 30  1  0
 30 31  1  0
 31 32  2  0
 32 33  1  0
 33 34  1  0
 23 35  1  0
 35 36  2  0
 18  4  1  0
 36 20  1  0
 29 24  1  0
 34 30  2  0
M  END
$$$$

     RDKit          2D

 36 37  0  0  0  0  0  0  0  0999 V2000
    0.2010   -3.3481    0.0000 O   0  0  0  0  0  0  0  0  0  0  0  0
    1.5000   -2.5981    0.0000 P   0  0  0  0  0  0  0  0  0  0  0  0
    2.7990   -1.8481    0.0000 O   0  0  0  0  0  0  0  0  0  0  0  0
    4.0981   -2.5981    0.0000 C   0  0  0  0  0  0  0  0  0  0  0  0
    5.3971   -1.8481    0.0000 C   0  0  0  0  0  0  0  0  0  0  0  0
    6.6962   -2.5981    0.0000 C   0  0  0  0  0  0  0  0  0  0  0  0
    7.4462   -1.2990    0.0000 F   0  0  0  0  0  0  0  0  0  0  0  0
    5.9462   -3.8971    0.0000 F   0  0  0  0  0  0  0  0  0  0  0  0
    7.9952   -3.3481    0.0000 C   0  0  0  0  0  0  0  0  0  0  0  0
    7.2452   -4.6471    0.0000 F   0  0  0  0  0  0  0  0  0  0  0  0
    8.7452   -2.0490    0.0000 F   0  0  0  0  0  0  0  0  0  0  0  0
    9.2942   -4.0981    0.0000 C   0  0  0  0  0  0  0  0  0  0  0  0
   10.0442   -2.7990    0.0000 F   0  0  0  0  0  0  0  0  0  0  0  0
    8.5442   -5.3971    0.0000 F   0  0  0  0  0  0  0  0  0  0  0  0
   10.5933   -4.8481    0.0000 C   0  0  0  0  0  0  0  0  0  0  0  0
    9.8433   -6.1471    0.0000 F   0  0  0  0  0  0  0  0  0  0  0  0
   11.3433   -3.5490    0.0000 F   0  0  0  0  0  0  0  0  0  0  0  0
   11.8923   -5.5981    0.0000 C   0  0  0  0  0  0  0  0  0  0  0  0
   12.6423   -4.2990    0.0000 F   0  0  0  0  0  0  0  0  0  0  0  0
   11.1423   -6.8971    0.0000 F   0  0  0  0  0  0  0  0  0  0  0  0
   13.1913   -6.3481    0.0000 C   0  0  0  0  0  0  0  0  0  0  0  0
   14.4904   -7.0981    0.0000 F   0  0  0  0  0  0  0  0  0  0  0  0
   12.4413   -7.6471    0.0000 F   0  0  0  0  0  0  0  0  0  0  0  0
   13.9413   -5.0490    0.0000 F   0  0  0  0  0  0  0  0  0  0  0  0
    0.7500   -1.2990    0.0000 N   0  0  0  0  0  0  0  0  0  0  0  0
    1.5000    0.0000    0.0000 C   0  0  0  0  0  0  0  0  0  0  0  0
    0.7500    1.2990    0.0000 C   0  0  0  0  0  0  0  0  0  0  0  0
   -0.7500    1.2990    0.0000 O   0  0  0  0  0  0  0  0  0  0  0  0
   -1.5000    0.0000    0.0000 C   0  0  0  0  0  0  0  0  0  0  0  0
   -0.7500   -1.2990    0.0000 C   0  0  0  0  0  0  0  0  0  0  0  0
    2.2500   -3.8971    0.0000 N   0  0  0  0  0  0  0  0  0  0  0  0
    1.5000   -5.1962    0.0000 C   0  0  0  0  0  0  0  0  0  0  0  0
    2.2500   -6.4952    0.0000 C   0  0  0  0  0  0  0  0  0  0  0  0
    3.7500   -6.4952    0.0000 O   0  0  0  0  0  0  0  0  0  0  0  0
    4.5000   -5.1962    0.0000 C   0  0  0  0  0  0  0  0  0  0  0  0
    3.7500   -3.8971    0.0000 C   0  0  0  0  0  0  0  0  0  0  0  0
  1  2  2  0
  2  3  1  0
  3  4  1  0
  4  5  1  0
  5  6  1  0
  6  7  1  0
  6  8  1  0
  6  9  1  0
  9 10  1  0
  9 11  1  0
  9 12  1  0
 12 13  1  0
 12 14  1  0
 12 15  1  0
 15 16  1  0
 15 17  1  0
 15 18  1  0
 18 19  1  0
 18 20  1  0
 18 21  1  0
 21 22  1  0
 21 23  1  0
 21 24  1  0
  2 25  1  0
 25 26  1  0
 26 27  1  0
 27 28  1  0
 28 29  1  0
 29 30  1  0
  2 31  1  0
 31 32  1  0
 32 33  1  0
 33 34  1  0
 34 35  1  0
 35 36  1  0
 30 25  1  0
 36 31  1  0
M  END
$$$$

     RDKit          2D

 32 33  0  0  0  0  0  0  0  0999 V2000
  -10.7650    6.9520    0.0000 F   0  0  0  0  0  0  0  0  0  0  0  0
  -10.9824    5.4678    0.0000 C   0  0  0  0  0  0  0  0  0  0  0  0
  -12.3764    4.9140    0.0000 F   0  0  0  0  0  0  0  0  0  0  0  0
   -9.8057    4.5375    0.0000 C   0  0  0  0  0  0  0  0  0  0  0  0
   -8.8754    5.7141    0.0000 F   0  0  0  0  0  0  0  0  0  0  0  0
  -10.7361    3.3608    0.0000 F   0  0  0  0  0  0  0  0  0  0  0  0
   -8.6291    3.6071    0.0000 C   0  0  0  0  0  0  0  0  0  0  0  0
   -9.5595    2.4305    0.0000 F   0  0  0  0  0  0  0  0  0  0  0  0
   -7.6988    4.7837    0.0000 F   0  0  0  0  0  0  0  0  0  0  0  0
   -7.4525    2.6768    0.0000 C   0  0  0  0  0  0  0  0  0  0  0  0
   -8.3828    1.5001    0.0000 F   0  0  0  0  0  0  0  0  0  0  0  0
   -6.5221    3.8534    0.0000 F   0  0  0  0  0  0  0  0  0  0  0  0
   -6.2759    1.7464    0.0000 C   0  0  0  0  0  0  0  0  0  0  0  0
   -5.3455    2.9230    0.0000 F   0  0  0  0  0  0  0  0  0  0  0  0
   -7.2062    0.5698    0.0000 F   0  0  0  0  0  0  0  0  0  0  0  0
   -5.0992    0.8160    0.0000 C   0  0  0  0  0  0  0  0  0  0  0  0
   -6.0296   -0.3606    0.0000 F   0  0  0  0  0  0  0  0  0  0  0  0
   -4.3192    2.0973    0.0000 F   0  0  0  0  0  0  0  0  0  0  0  0
   -3.9226   -0.1143    0.0000 C   0  0  0  0  0  0  0  0  0  0  0  0
   -0.3939    0.3845    0.0000 C   0  0  0  0  0  0  0  0  0  0  0  0
   -3.3086    1.7208    0.0000 I   0  0  0  0  0  0  0  0  0  0  0  0
   -0.5538    0.5316    0.0000 O   0  0  0  0  0  0  0  0  0  0  0  0
    0.4044   -0.4391    0.0000 C   0  0  0  0  0  0  0  0  0  0  0  0
    0.3810   -0.3692    0.0000 C   0  0  0  0  0  0  0  0  0  0  0  0
    1.3858   -1.3858    0.0000 N   0  0  0  0  0  0  0  0  0  0  0  0
    1.9598    0.0000    0.0000 C   0  0  0  0  0  0  0  0  0  0  0  0
    1.3858    1.3858    0.0000 C   0  0  0  0  0  0  0  0  0  0  0  0
    0.0000    1.9598    0.0000 O   0  0  0  0  0  0  0  0  0  0  0  0
   -1.3858    1.3858    0.0000 Si  0  0  0  0  0  4  0  0  0  0  0  0
   -1.9598    0.0000    0.0000 O   0  0  0  0  0  0  0  0  0  0  0  0
   -1.3858   -1.3858    0.0000 C   0  0  0  0  0  0  0  0  0  0  0  0
    0.0000   -1.9598    0.0000 C   0  0  0  0  0  0  0  0  0  0  0  0
  1  2  1  0
  2  3  1  0
  2  4  1  0
  4  5  1  0
  4  6  1  0
  4  7  1  0
  7  8  1  0
  7  9  1  0
  7 10  1  0
 10 11  1  0
 10 12  1  0
 10 13  1  0
 13 14  1  0
 13 15  1  0
 13 16  1  0
 16 17  1  0
 16 18  1  0
 16 19  1  0
 19 20  1  0
 20 21  1  0
 20 22  1  0
 22 23  1  0
 23 24  1  0
 24 25  1  0
 25 26  1  0
 26 27  1  0
 27 28  1  0
 28 29  1  0
 29 30  1  0
 30 31  1  0
 31 32  1  0
 29 20  1  0
 32 25  1  0
M  END
$$$$

     RDKit          2D

 27 25  0  0  0  0  0  0  0  0999 V2000
   -3.3481    1.2990    0.0000 O   0  0  0  0  0  0  0  0  0  0  0  0
   -2.5981    0.0000    0.0000 P   0  0  0  0  0  0  0  0  0  0  0  0
   -1.8481   -1.2990    0.0000 O   0  0  0  0  0  0  0  0  0  0  0  0
   -3.8971   -0.7500    0.0000 O   0  0  0  0  0  0  0  0  0  0  0  0
   -1.2990    0.7500    0.0000 O   0  0  0  0  0  0  0  0  0  0  0  0
    0.0000    0.0000    0.0000 C   0  0  0  0  0  0  0  0  0  0  0  0
    1.2990    0.7500    0.0000 C   0  0  0  0  0  0  0  0  0  0  0  0
    2.5981   -0.0000    0.0000 C   0  0  0  0  0  0  0  0  0  0  0  0
    3.3481    1.2990    0.0000 F   0  0  0  0  0  0  0  0  0  0  0  0
    1.8481   -1.2990    0.0000 F   0  0  0  0  0  0  0  0  0  0  0  0
    3.8971   -0.7500    0.0000 C   0  0  0  0  0  0  0  0  0  0  0  0
    3.1471   -2.0490    0.0000 F   0  0  0  0  0  0  0  0  0  0  0  0
    4.6471    0.5490    0.0000 F   0  0  0  0  0  0  0  0  0  0  0  0
    5.1962   -1.5000    0.0000 C   0  0  0  0  0  0  0  0  0  0  0  0
    5.9462   -0.2010    0.0000 F   0  0  0  0  0  0  0  0  0  0  0  0
    4.4462   -2.7990    0.0000 F   0  0  0  0  0  0  0  0  0  0  0  0
    6.4952   -2.2500    0.0000 C   0  0  0  0  0  0  0  0  0  0  0  0
    5.7452   -3.5490    0.0000 F   0  0  0  0  0  0  0  0  0  0  0  0
    7.2452   -0.9510    0.0000 F   0  0  0  0  0  0  0  0  0  0  0  0
    7.7942   -3.0000    0.0000 C   0  0  0  0  0  0  0  0  0  0  0  0
    8.5442   -1.7010    0.0000 F   0  0  0  0  0  0  0  0  0  0  0  0
    7.0442   -4.2990    0.0000 F   0  0  0  0  0  0  0  0  0  0  0  0
    9.0933   -3.7500    0.0000 C   0  0  0  0  0  0  0  0  0  0  0  0
   10.3923   -4.5000    0.0000 F   0  0  0  0  0  0  0  0  0  0  0  0
    8.3433   -5.0490    0.0000 F   0  0  0  0  0  0  0  0  0  0  0  0
    9.8433   -2.4510    0.0000 F   0  0  0  0  0  0  0  0  0  0  0  0
    0.0000    2.2990    0.0000 K   0  0  0  0  0 15  0  0  0  0  0  0
  1  2  2  0
  2  3  1  0
  2  4  1  0
  2  5  1  0
  5  6  1  0
  6  7  1  0
  7  8  1  0
  8  9  1  0
  8 10  1  0
  8 11  1  0
 11 12  1  0
 11 13  1  0
 11 14  1  0
 14 15  1  0
 14 16  1  0
 14 17  1  0
 17 18  1  0
 17 19  1  0
 17 20  1  0
 20 21  1  0
 20 22  1  0
 20 23  1  0
 23 24  1  0
 23 25  1  0
 23 26  1  0
M  CHG  2   3  -1  27   1
M  END
$$$$

     RDKit          2D

 18 17  0  0  0  0  0  0  0  0999 V2000
   -0.0000   -1.5000    0.0000 F   0  0  0  0  0  0  0  0  0  0  0  0
    0.0000   -0.0000    0.0000 C   0  0  0  0  0  0  0  0  0  0  0  0
    1.2990    0.7500    0.0000 C   0  0  0  0  0  0  0  0  0  0  0  0
    1.2990    2.2500    0.0000 C   0  0  0  0  0  0  0  0  0  0  0  0
    1.2990    3.7500    0.0000 F   0  0  0  0  0  0  0  0  0  0  0  0
    0.0931    2.3981    0.0000 F   0  0  0  0  0  0  0  0  0  0  0  0
    2.7990    2.2500    0.0000 F   0  0  0  0  0  0  0  0  0  0  0  0
    2.5981   -0.0000    0.0000 C   0  0  0  0  0  0  0  0  0  0  0  0
    3.8971   -0.7500    0.0000 F   0  0  0  0  0  0  0  0  0  0  0  0
    3.3481    1.2990    0.0000 F   0  0  0  0  0  0  0  0  0  0  0  0
    1.8481   -1.2990    0.0000 F   0  0  0  0  0  0  0  0  0  0  0  0
   -1.2990    0.7500    0.0000 C   0  0  0  0  0  0  0  0  0  0  0  0
   -0.8243    1.8684    0.0000 F   0  0  0  0  0  0  0  0  0  0  0  0
   -2.0490   -0.5490    0.0000 F   0  0  0  0  0  0  0  0  0  0  0  0
   -2.5981    1.5000    0.0000 C   0  0  0  0  0  0  0  0  0  0  0  0
   -3.8971    2.2500    0.0000 F   0  0  0  0  0  0  0  0  0  0  0  0
   -3.3481    0.2010    0.0000 F   0  0  0  0  0  0  0  0  0  0  0  0
   -1.8481    2.7990    0.0000 F   0  0  0  0  0  0  0  0  0  0  0  0
  1  2  1  0
  2  3  2  0
  3  4  1  0
  4  5  1  0
  4  6  1  0
  4  7  1  0
  3  8  1  0
  8  9  1  0
  8 10  1  0
  8 11  1  0
  2 12  1  0
 12 13  1  0
 12 14  1  0
 12 15  1  0
 15 16  1  0
 15 17  1  0
 15 18  1  0
M  END
$$$$

     RDKit          2D

 21 21  0  0  0  0  0  0  0  0999 V2000
    3.0000    0.0000    0.0000 F   0  0  0  0  0  0  0  0  0  0  0  0
    1.5000    0.0000    0.0000 C   0  0  0  0  0  0  0  0  0  0  0  0
    0.7500   -1.2990    0.0000 C   0  0  0  0  0  0  0  0  0  0  0  0
    1.5000   -2.5981    0.0000 O   0  0  0  0  0  0  0  0  0  0  0  0
    0.7500   -3.8971    0.0000 C   0  0  0  0  0  0  0  0  0  0  0  0
    1.5000   -5.1962    0.0000 C   0  0  0  0  0  0  0  0  0  0  0  0
    2.2500   -6.4952    0.0000 F   0  0  0  0  0  0  0  0  0  0  0  0
    0.2010   -5.9462    0.0000 F   0  0  0  0  0  0  0  0  0  0  0  0
    2.7990   -4.4462    0.0000 F   0  0  0  0  0  0  0  0  0  0  0  0
   -0.7500   -1.2990    0.0000 C   0  0  0  0  0  0  0  0  0  0  0  0
   -0.4895   -2.7762    0.0000 F   0  0  0  0  0  0  0  0  0  0  0  0
   -2.1595   -1.8121    0.0000 F   0  0  0  0  0  0  0  0  0  0  0  0
   -1.5000    0.0000    0.0000 C   0  0  0  0  0  0  0  0  0  0  0  0
   -2.6491   -0.9642    0.0000 F   0  0  0  0  0  0  0  0  0  0  0  0
   -2.6491    0.9642    0.0000 F   0  0  0  0  0  0  0  0  0  0  0  0
   -0.7500    1.2990    0.0000 C   0  0  0  0  0  0  0  0  0  0  0  0
   -2.1595    1.8121    0.0000 F   0  0  0  0  0  0  0  0  0  0  0  0
   -0.4895    2.7762    0.0000 F   0  0  0  0  0  0  0  0  0  0  0  0
    0.7500    1.2990    0.0000 C   0  0  0  0  0  0  0  0  0  0  0  0
    0.4895    2.7762    0.0000 F   0  0  0  0  0  0  0  0  0  0  0  0
    2.1595    1.8121    0.0000 F   0  0  0  0  0  0  0  0  0  0  0  0
  1  2  1  0
  2  3  2  0
  3  4  1  0
  4  5  1  0
  5  6  1  0
  6  7  1  0
  6  8  1  0
  6  9  1  0
  3 10  1  0
 10 11  1  0
 10 12  1  0
 10 13  1  0
 13 14  1  0
 13 15  1  0
 13 16  1  0
 16 17  1  0
 16 18  1  0
 16 19  1  0
 19 20  1  0
 19 21  1  0
 19  2  1  0
M  END
$$$$

     RDKit          2D

 12 12  0  0  0  0  0  0  0  0999 V2000
    2.7760    0.0000    0.0000 O   0  0  0  0  0  0  0  0  0  0  0  0
    1.2760    0.0000    0.0000 C   0  0  0  0  0  0  0  0  0  0  0  0
    0.3943    1.2135    0.0000 C   0  0  0  0  0  0  0  0  0  0  0  0
    0.8578    2.6401    0.0000 F   0  0  0  0  0  0  0  0  0  0  0  0
   -1.0323    0.7500    0.0000 C   0  0  0  0  0  0  0  0  0  0  0  0
   -2.2458    1.6317    0.0000 F   0  0  0  0  0  0  0  0  0  0  0  0
   -1.0323   -0.7500    0.0000 C   0  0  0  0  0  0  0  0  0  0  0  0
   -1.3442   -2.2172    0.0000 F   0  0  0  0  0  0  0  0  0  0  0  0
   -2.5241   -0.5932    0.0000 F   0  0  0  0  0  0  0  0  0  0  0  0
    0.3943   -1.2135    0.0000 C   0  0  0  0  0  0  0  0  0  0  0  0
    1.6933   -1.9635    0.0000 F   0  0  0  0  0  0  0  0  0  0  0  0
   -0.2158   -2.5838    0.0000 F   0  0  0  0  0  0  0  0  0  0  0  0
  1  2  2  0
  2  3  1  0
  3  4  1  0
  3  5  2  0
  5  6  1  0
  5  7  1  0
  7  8  1  0
  7  9  1  0
  7 10  1  0
 10 11  1  0
 10 12  1  0
 10  2  1  0
M  END
$$$$

     RDKit          2D

 39 37  0  0  0  0  0  0  0  0999 V2000
    0.0000    0.0000    0.0000 C   0  0  0  0  0  0  0  0  0  0  0  0
    1.2990    0.7500    0.0000 C   0  0  0  0  0  0  0  0  0  0  0  0
    2.5981   -0.0000    0.0000 N   0  0  0  0  0  0  0  0  0  0  0  0
    3.8971    0.7500    0.0000 C   0  0  0  0  0  0  0  0  0  0  0  0
    5.1962   -0.0000    0.0000 C   0  0  0  0  0  0  0  0  0  0  0  0
    6.4952    0.7500    0.0000 O   0  0  0  0  0  0  0  0  0  0  0  0
    7.7942   -0.0000    0.0000 S   0  0  0  0  0  0  0  0  0  0  0  0
    7.0442   -1.2990    0.0000 O   0  0  0  0  0  0  0  0  0  0  0  0
    8.5442    1.2990    0.0000 O   0  0  0  0  0  0  0  0  0  0  0  0
    9.0933   -0.7500    0.0000 O   0  0  0  0  0  0  0  0  0  0  0  0
    2.5981   -1.5000    0.0000 S   0  0  0  0  0  0  0  0  0  0  0  0
    1.8069   -1.4028    0.0000 O   0  0  0  0  0  0  0  0  0  0  0  0
    4.0981   -1.5000    0.0000 O   0  0  0  0  0  0  0  0  0  0  0  0
    2.5981   -3.0000    0.0000 C   0  0  0  0  0  0  0  0  0  0  0  0
    4.0981   -3.0000    0.0000 F   0  0  0  0  0  0  0  0  0  0  0  0
    2.5981   -4.5000    0.0000 F   0  0  0  0  0  0  0  0  0  0  0  0
    1.0981   -3.0000    0.0000 C   0  0  0  0  0  0  0  0  0  0  0  0
    0.9901   -2.1209    0.0000 F   0  0  0  0  0  0  0  0  0  0  0  0
    1.0981   -4.5000    0.0000 F   0  0  0  0  0  0  0  0  0  0  0  0
   -0.4019   -3.0000    0.0000 C   0  0  0  0  0  0  0  0  0  0  0  0
   -0.4019   -1.5000    0.0000 F   0  0  0  0  0  0  0  0  0  0  0  0
   -0.4019   -4.5000    0.0000 F   0  0  0  0  0  0  0  0  0  0  0  0
   -1.9019   -3.0000    0.0000 C   0  0  0  0  0  0  0  0  0  0  0  0
   -1.9019   -4.5000    0.0000 F   0  0  0  0  0  0  0  0  0  0  0  0
   -1.9019   -1.5000    0.0000 F   0  0  0  0  0  0  0  0  0  0  0  0
   -3.4019   -3.0000    0.0000 C   0  0  0  0  0  0  0  0  0  0  0  0
   -3.4019   -4.5000    0.0000 F   0  0  0  0  0  0  0  0  0  0  0  0
   -3.4019   -1.5000    0.0000 F   0  0  0  0  0  0  0  0  0  0  0  0
   -4.9019   -3.0000    0.0000 C   0  0  0  0  0  0  0  0  0  0  0  0
   -4.9019   -1.5000    0.0000 F   0  0  0  0  0  0  0  0  0  0  0  0
   -4.9019   -4.5000    0.0000 F   0  0  0  0  0  0  0  0  0  0  0  0
   -6.4019   -3.0000    0.0000 C   0  0  0  0  0  0  0  0  0  0  0  0
   -6.4019   -4.5000    0.0000 F   0  0  0  0  0  0  0  0  0  0  0  0
   -6.4019   -1.5000    0.0000 F   0  0  0  0  0  0  0  0  0  0  0  0
   -7.9019   -3.0000    0.0000 C   0  0  0  0  0  0  0  0  0  0  0  0
   -9.4019   -3.0000    0.0000 F   0  0  0  0  0  0  0  0  0  0  0  0
   -7.9019   -1.5000    0.0000 F   0  0  0  0  0  0  0  0  0  0  0  0
   -7.9019   -4.5000    0.0000 F   0  0  0  0  0  0  0  0  0  0  0  0
    0.0000    2.2990    0.0000 Na  0  0  0  0  0 15  0  0  0  0  0  0
  1  2  1  0
  2  3  1  0
  3  4  1  0
  4  5  1  0
  5  6  1  0
  6  7  1  0
  7  8  2  0
  7  9  2  0
  7 10  1  0
  3 11  1  0
 11 12  2  0
 11 13  2  0
 11 14  1  0
 14 15  1  0
 14 16  1  0
 14 17  1  0
 17 18  1  0
 17 19  1  0
 17 20  1  0
 20 21  1  0
 20 22  1  0
 20 23  1  0
 23 24  1  0
 23 25  1  0
 23 26  1  0
 26 27  1  0
 26 28  1  0
 26 29  1  0
 29 30  1  0
 29 31  1  0
 29 32  1  0
 32 33  1  0
 32 34  1  0
 32 35  1  0
 35 36  1  0
 35 37  1  0
 35 38  1  0
M  CHG  2  10  -1  39   1
M  END
$$$$

     RDKit          2D

 32 31  0  0  0  0  0  0  0  0999 V2000
   -1.5000    0.0000    0.0000 F   0  0  0  0  0  0  0  0  0  0  0  0
    0.0000    0.0000    0.0000 C   0  0  0  0  0  0  0  0  0  0  0  0
   -0.1080    0.8791    0.0000 F   0  0  0  0  0  0  0  0  0  0  0  0
   -0.0000   -1.5000    0.0000 F   0  0  0  0  0  0  0  0  0  0  0  0
    1.5000    0.0000    0.0000 C   0  0  0  0  0  0  0  0  0  0  0  0
    1.5000   -1.5000    0.0000 F   0  0  0  0  0  0  0  0  0  0  0  0
    1.5000    1.5000    0.0000 C   0  0  0  0  0  0  0  0  0  0  0  0
    1.5000    3.0000    0.0000 F   0  0  0  0  0  0  0  0  0  0  0  0
    2.3791    1.6080    0.0000 F   0  0  0  0  0  0  0  0  0  0  0  0
    0.6209    1.6080    0.0000 F   0  0  0  0  0  0  0  0  0  0  0  0
    3.0000    0.0000    0.0000 C   0  0  0  0  0  0  0  0  0  0  0  0
    3.1080    0.8791    0.0000 F   0  0  0  0  0  0  0  0  0  0  0  0
    3.0000   -1.5000    0.0000 F   0  0  0  0  0  0  0  0  0  0  0  0
    4.5000    0.0000    0.0000 C   0  0  0  0  0  0  0  0  0  0  0  0
    4.5000   -1.5000    0.0000 F   0  0  0  0  0  0  0  0  0  0  0  0
    4.5000    1.5000    0.0000 F   0  0  0  0  0  0  0  0  0  0  0  0
    6.0000    0.0000    0.0000 C   0  0  0  0  0  0  0  0  0  0  0  0
    6.0000   -1.5000    0.0000 F   0  0  0  0  0  0  0  0  0  0  0  0
    6.0000    1.5000    0.0000 F   0  0  0  0  0  0  0  0  0  0  0  0
    7.5000    0.0000    0.0000 C   0  0  0  0  0  0  0  0  0  0  0  0
    7.3172    1.4888    0.0000 F   0  0  0  0  0  0  0  0  0  0  0  0
    7.5000   -1.5000    0.0000 F   0  0  0  0  0  0  0  0  0  0  0  0
    9.0000    0.0000    0.0000 C   0  0  0  0  0  0  0  0  0  0  0  0
    9.0000   -1.5000    0.0000 F   0  0  0  0  0  0  0  0  0  0  0  0
   10.5000    0.0000    0.0000 C   0  0  0  0  0  0  0  0  0  0  0  0
   12.0000    0.0000    0.0000 F   0  0  0  0  0  0  0  0  0  0  0  0
   10.5000   -1.5000    0.0000 F   0  0  0  0  0  0  0  0  0  0  0  0
   10.6080    0.8791    0.0000 F   0  0  0  0  0  0  0  0  0  0  0  0
    9.0000    1.5000    0.0000 C   0  0  0  0  0  0  0  0  0  0  0  0
    9.0000    3.0000    0.0000 F   0  0  0  0  0  0  0  0  0  0  0  0
    9.8791    1.6080    0.0000 F   0  0  0  0  0  0  0  0  0  0  0  0
    7.5112    1.6828    0.0000 F   0  0  0  0  0  0  0  0  0  0  0  0
  1  2  1  0
  2  3  1  0
  2  4  1  0
  2  5  1  0
  5  6  1  0
  5  7  1  0
  7  8  1  0
  7  9  1  0
  7 10  1  0
  5 11  1  0
 11 12  1  0
 11 13  1  0
 11 14  1  0
 14 15  1  0
 14 16  1  0
 14 17  1  0
 17 18  1  0
 17 19  1  0
 17 20  1  0
 20 21  1  0
 20 22  1  0
 20 23  1  0
 23 24  1  0
 23 25  1  0
 25 26  1  0
 25 27  1  0
 25 28  1  0
 23 29  1  0
 29 30  1  0
 29 31  1  0
 29 32  1  0
M  END
$$$$

     RDKit          2D

 31 30  0  0  0  0  0  0  0  0999 V2000
    0.0000    0.0000    0.0000 C   0  0  0  0  0  0  0  0  0  0  0  0
    1.2990    0.7500    0.0000 Si  0  0  0  0  0  4  0  0  0  0  0  0
    2.0490   -0.5490    0.0000 Cl  0  0  0  0  0  0  0  0  0  0  0  0
    0.5490    2.0490    0.0000 Cl  0  0  0  0  0  0  0  0  0  0  0  0
    2.5981    1.5000    0.0000 C   0  0  0  0  0  0  0  0  0  0  0  0
    2.5981    3.0000    0.0000 C   0  0  0  0  0  0  0  0  0  0  0  0
    3.8971    3.7500    0.0000 C   0  0  0  0  0  0  0  0  0  0  0  0
    3.1471    5.0490    0.0000 F   0  0  0  0  0  0  0  0  0  0  0  0
    4.6471    2.4510    0.0000 F   0  0  0  0  0  0  0  0  0  0  0  0
    5.1962    4.5000    0.0000 C   0  0  0  0  0  0  0  0  0  0  0  0
    5.9462    3.2010    0.0000 F   0  0  0  0  0  0  0  0  0  0  0  0
    4.4462    5.7990    0.0000 F   0  0  0  0  0  0  0  0  0  0  0  0
    6.4952    5.2500    0.0000 C   0  0  0  0  0  0  0  0  0  0  0  0
    5.7452    6.5490    0.0000 F   0  0  0  0  0  0  0  0  0  0  0  0
    7.2452    3.9510    0.0000 F   0  0  0  0  0  0  0  0  0  0  0  0
    7.7942    6.0000    0.0000 C   0  0  0  0  0  0  0  0  0  0  0  0
    8.5442    4.7010    0.0000 F   0  0  0  0  0  0  0  0  0  0  0  0
    7.0442    7.2990    0.0000 F   0  0  0  0  0  0  0  0  0  0  0  0
    9.0933    6.7500    0.0000 C   0  0  0  0  0  0  0  0  0  0  0  0
    8.3433    8.0490    0.0000 F   0  0  0  0  0  0  0  0  0  0  0  0
    9.8433    5.4510    0.0000 F   0  0  0  0  0  0  0  0  0  0  0  0
   10.3923    7.5000    0.0000 C   0  0  0  0  0  0  0  0  0  0  0  0
   11.1423    6.2010    0.0000 F   0  0  0  0  0  0  0  0  0  0  0  0
    9.6423    8.7990    0.0000 F   0  0  0  0  0  0  0  0  0  0  0  0
   11.6913    8.2500    0.0000 C   0  0  0  0  0  0  0  0  0  0  0  0
   10.9413    9.5490    0.0000 F   0  0  0  0  0  0  0  0  0  0  0  0
   12.4413    6.9510    0.0000 F   0  0  0  0  0  0  0  0  0  0  0  0
   12.9904    9.0000    0.0000 C   0  0  0  0  0  0  0  0  0  0  0  0
   14.2894    9.7500    0.0000 F   0  0  0  0  0  0  0  0  0  0  0  0
   13.7404    7.7010    0.0000 F   0  0  0  0  0  0  0  0  0  0  0  0
   12.2404   10.2990    0.0000 F   0  0  0  0  0  0  0  0  0  0  0  0
  1  2  1  0
  2  3  1  0
  2  4  1  0
  2  5  1  0
  5  6  1  0
  6  7  1  0
  7  8  1  0
  7  9  1  0
  7 10  1  0
 10 11  1  0
 10 12  1  0
 10 13  1  0
 13 14  1  0
 13 15  1  0
 13 16  1  0
 16 17  1  0
 16 18  1  0
 16 19  1  0
 19 20  1  0
 19 21  1  0
 19 22  1  0
 22 23  1  0
 22 24  1  0
 22 25  1  0
 25 26  1  0
 25 27  1  0
 25 28  1  0
 28 29  1  0
 28 30  1  0
 28 31  1  0
M  END
$$$$

     RDKit          2D

 25 24  0  0  0  0  0  0  0  0999 V2000
   -1.2990    0.7500    0.0000 F   0  0  0  0  0  0  0  0  0  0  0  0
    0.0000    0.0000    0.0000 C   0  0  0  0  0  0  0  0  0  0  0  0
   -0.0000   -1.5000    0.0000 F   0  0  0  0  0  0  0  0  0  0  0  0
    1.2990    0.7500    0.0000 C   0  0  0  0  0  0  0  0  0  0  0  0
    2.0490   -0.5490    0.0000 F   0  0  0  0  0  0  0  0  0  0  0  0
    0.5490    2.0490    0.0000 F   0  0  0  0  0  0  0  0  0  0  0  0
    2.5981    1.5000    0.0000 C   0  0  0  0  0  0  0  0  0  0  0  0
    1.8481    2.7990    0.0000 F   0  0  0  0  0  0  0  0  0  0  0  0
    3.3481    0.2010    0.0000 F   0  0  0  0  0  0  0  0  0  0  0  0
    3.8971    2.2500    0.0000 C   0  0  0  0  0  0  0  0  0  0  0  0
    4.6471    0.9510    0.0000 F   0  0  0  0  0  0  0  0  0  0  0  0
    3.1471    3.5490    0.0000 F   0  0  0  0  0  0  0  0  0  0  0  0
    5.1962    3.0000    0.0000 C   0  0  0  0  0  0  0  0  0  0  0  0
    4.4462    4.2990    0.0000 F   0  0  0  0  0  0  0  0  0  0  0  0
    5.9462    1.7010    0.0000 F   0  0  0  0  0  0  0  0  0  0  0  0
    6.4952    3.7500    0.0000 C   0  0  0  0  0  0  0  0  0  0  0  0
    7.2452    2.4510    0.0000 F   0  0  0  0  0  0  0  0  0  0  0  0
    5.7452    5.0490    0.0000 F   0  0  0  0  0  0  0  0  0  0  0  0
    7.7942    4.5000    0.0000 C   0  0  0  0  0  0  0  0  0  0  0  0
    7.0442    5.7990    0.0000 F   0  0  0  0  0  0  0  0  0  0  0  0
    8.5442    3.2010    0.0000 F   0  0  0  0  0  0  0  0  0  0  0  0
    9.0933    5.2500    0.0000 C   0  0  0  0  0  0  0  0  0  0  0  0
   10.3923    6.0000    0.0000 F   0  0  0  0  0  0  0  0  0  0  0  0
    9.8433    3.9510    0.0000 F   0  0  0  0  0  0  0  0  0  0  0  0
    8.3433    6.5490    0.0000 F   0  0  0  0  0  0  0  0  0  0  0  0
  1  2  1  0
  2  3  1  0
  2  4  1  0
  4  5  1  0
  4  6  1  0
  4  7  1  0
  7  8  1  0
  7  9  1  0
  7 10  1  0
 10 11  1  0
 10 12  1  0
 10 13  1  0
 13 14  1  0
 13 15  1  0
 13 16  1  0
 16 17  1  0
 16 18  1  0
 16 19  1  0
 19 20  1  0
 19 21  1  0
 19 22  1  0
 22 23  1  0
 22 24  1  0
 22 25  1  0
M  END
$$$$

     RDKit          2D

 18 18  0  0  0  0  0  0  0  0999 V2000
    3.5260    1.2990    0.0000 O   0  0  0  0  0  0  0  0  0  0  0  0
    2.7760    0.0000    0.0000 C   0  0  0  0  0  0  0  0  0  0  0  0
    3.5260   -1.2990    0.0000 C   0  0  0  0  0  0  0  0  0  0  0  0
    5.0260   -1.2990    0.0000 C   0  0  0  0  0  0  0  0  0  0  0  0
    5.0260    0.2010    0.0000 O   0  0  0  0  0  0  0  0  0  0  0  0
    6.5260   -1.2990    0.0000 C   0  0  0  0  0  0  0  0  0  0  0  0
    8.0260   -1.2990    0.0000 F   0  0  0  0  0  0  0  0  0  0  0  0
    6.5260    0.2010    0.0000 F   0  0  0  0  0  0  0  0  0  0  0  0
    6.6339   -2.1782    0.0000 F   0  0  0  0  0  0  0  0  0  0  0  0
    5.0260   -2.7990    0.0000 C   0  0  0  0  0  0  0  0  0  0  0  0
    5.0260   -4.2990    0.0000 F   0  0  0  0  0  0  0  0  0  0  0  0
    5.9051   -2.9070    0.0000 F   0  0  0  0  0  0  0  0  0  0  0  0
    3.5260   -2.7990    0.0000 F   0  0  0  0  0  0  0  0  0  0  0  0
    1.2760    0.0000    0.0000 C   0  0  0  0  0  0  0  0  0  0  0  0
    0.3943    1.2135    0.0000 C   0  0  0  0  0  0  0  0  0  0  0  0
   -1.0323    0.7500    0.0000 C   0  0  0  0  0  0  0  0  0  0  0  0
   -1.0323   -0.7500    0.0000 C   0  0  0  0  0  0  0  0  0  0  0  0
    0.3943   -1.2135    0.0000 S   0  0  0  0  0  0  0  0  0  0  0  0
  1  2  2  0
  2  3  1  0
  3  4  1  0
  4  5  1  0
  4  6  1  0
  6  7  1  0
  6  8  1  0
  6  9  1  0
  4 10  1  0
 10 11  1  0
 10 12  1  0
 10 13  1  0
  2 14  1  0
 14 15  2  0
 15 16  1  0
 16 17  2  0
 17 18  1  0
 18 14  1  0
M  END
$$$$

     RDKit          2D

 13 13  0  0  0  0  0  0  0  0999 V2000
    3.7500   -3.8971    0.0000 F   0  0  0  0  0  0  0  0  0  0  0  0
    4.5000   -2.5981    0.0000 C   0  0  0  0  0  0  0  0  0  0  0  0
    6.0000   -2.5981    0.0000 F   0  0  0  0  0  0  0  0  0  0  0  0
    3.7500   -1.2990    0.0000 C   0  0  0  0  0  0  0  0  0  0  0  0
    2.4510   -2.0490    0.0000 F   0  0  0  0  0  0  0  0  0  0  0  0
    5.0490   -0.5490    0.0000 F   0  0  0  0  0  0  0  0  0  0  0  0
    3.0000    0.0000    0.0000 O   0  0  0  0  0  0  0  0  0  0  0  0
    1.5000    0.0000    0.0000 C   0  0  0  0  0  0  0  0  0  0  0  0
    0.7500   -1.2990    0.0000 C   0  0  0  0  0  0  0  0  0  0  0  0
   -0.7500   -1.2990    0.0000 C   0  0  0  0  0  0  0  0  0  0  0  0
   -1.5000    0.0000    0.0000 C   0  0  0  0  0  0  0  0  0  0  0  0
   -0.7500    1.2990    0.0000 C   0  0  0  0  0  0  0  0  0  0  0  0
    0.7500    1.2990    0.0000 C   0  0  0  0  0  0  0  0  0  0  0  0
  1  2  1  0
  2  3  1  0
  2  4  1  0
  4  5  1  0
  4  6  1  0
  4  7  1  0
  7  8  1  0
  8  9  2  0
  9 10  1  0
 10 11  2  0
 11 12  1  0
 12 13  2  0
 13  8  1  0
M  END
$$$$

     RDKit          2D

  7  6  0  0  0  0  0  0  0  0999 V2000
   -1.2990    0.7500    0.0000 F   0  0  0  0  0  0  0  0  0  0  0  0
    0.0000    0.0000    0.0000 C   0  0  0  0  0  0  0  0  0  0  0  0
   -0.0000   -1.5000    0.0000 F   0  0  0  0  0  0  0  0  0  0  0  0
    1.2990    0.7500    0.0000 C   0  0  0  0  0  0  0  0  0  0  0  0
    2.5981    1.5000    0.0000 F   0  0  0  0  0  0  0  0  0  0  0  0
    2.0490   -0.5490    0.0000 F   0  0  0  0  0  0  0  0  0  0  0  0
    0.5490    2.0490    0.0000 I   0  0  0  0  0  0  0  0  0  0  0  0
  1  2  1  0
  2  3  1  0
  2  4  1  0
  4  5  1  0
  4  6  1  0
  4  7  1  0
M  END
$$$$

     RDKit          2D

 21 21  0  0  0  0  0  0  0  0999 V2000
    3.7500    1.2990    0.0000 O   0  0  0  0  0  0  0  0  0  0  0  0
    3.0000    0.0000    0.0000 C   0  0  0  0  0  0  0  0  0  0  0  0
    3.7500   -1.2990    0.0000 C   0  0  0  0  0  0  0  0  0  0  0  0
    5.2500   -1.2990    0.0000 C   0  0  0  0  0  0  0  0  0  0  0  0
    6.0000   -2.5981    0.0000 C   0  0  0  0  0  0  0  0  0  0  0  0
    6.7500   -3.8971    0.0000 F   0  0  0  0  0  0  0  0  0  0  0  0
    7.2990   -1.8481    0.0000 F   0  0  0  0  0  0  0  0  0  0  0  0
    4.7010   -3.3481    0.0000 F   0  0  0  0  0  0  0  0  0  0  0  0
    6.0000    0.0000    0.0000 C   0  0  0  0  0  0  0  0  0  0  0  0
    6.7500    1.2990    0.0000 F   0  0  0  0  0  0  0  0  0  0  0  0
    7.2990   -0.7500    0.0000 F   0  0  0  0  0  0  0  0  0  0  0  0
    4.7010    0.7500    0.0000 F   0  0  0  0  0  0  0  0  0  0  0  0
    1.5000    0.0000    0.0000 C   0  0  0  0  0  0  0  0  0  0  0  0
    0.7500   -1.2990    0.0000 C   0  0  0  0  0  0  0  0  0  0  0  0
   -0.7500   -1.2990    0.0000 C   0  0  0  0  0  0  0  0  0  0  0  0
   -1.5000    0.0000    0.0000 C   0  0  0  0  0  0  0  0  0  0  0  0
   -0.7500    1.2990    0.0000 C   0  0  0  0  0  0  0  0  0  0  0  0
    0.7500    1.2990    0.0000 C   0  0  0  0  0  0  0  0  0  0  0  0
    1.5000    2.5981    0.0000 N   0  0  0  0  0  0  0  0  0  0  0  0
    3.0000    2.5981    0.0000 O   0  0  0  0  0  0  0  0  0  0  0  0
    0.7500    3.8971    0.0000 O   0  0  0  0  0  0  0  0  0  0  0  0
  1  2  2  0
  2  3  1  0
  3  4  2  0
  4  5  1  0
  5  6  1  0
  5  7  1  0
  5  8  1  0
  4  9  1  0
  9 10  1  0
  9 11  1  0
  9 12  1  0
  2 13  1  0
 13 14  2  0
 14 15  1  0
 15 16  2  0
 16 17  1  0
 17 18  2  0
 18 19  1  0
 19 20  2  0
 19 21  1  0
 18 13  1  0
M  CHG  2  19   1  21  -1
M  END
$$$$

     RDKit          2D

 19 19  0  0  0  0  0  0  0  0999 V2000
    3.7500    1.2990    0.0000 O   0  0  0  0  0  0  0  0  0  0  0  0
    3.0000    0.0000    0.0000 C   0  0  0  0  0  0  0  0  0  0  0  0
    3.7500   -1.2990    0.0000 C   0  0  0  0  0  0  0  0  0  0  0  0
    5.2500   -1.2990    0.0000 C   0  0  0  0  0  0  0  0  0  0  0  0
    6.0000   -2.5981    0.0000 C   0  0  0  0  0  0  0  0  0  0  0  0
    6.7500   -3.8971    0.0000 F   0  0  0  0  0  0  0  0  0  0  0  0
    7.2990   -1.8481    0.0000 F   0  0  0  0  0  0  0  0  0  0  0  0
    4.7010   -3.3481    0.0000 F   0  0  0  0  0  0  0  0  0  0  0  0
    6.0000    0.0000    0.0000 C   0  0  0  0  0  0  0  0  0  0  0  0
    6.7500    1.2990    0.0000 F   0  0  0  0  0  0  0  0  0  0  0  0
    7.2990   -0.7500    0.0000 F   0  0  0  0  0  0  0  0  0  0  0  0
    4.7010    0.7500    0.0000 F   0  0  0  0  0  0  0  0  0  0  0  0
    1.5000    0.0000    0.0000 C   0  0  0  0  0  0  0  0  0  0  0  0
    0.7500   -1.2990    0.0000 C   0  0  0  0  0  0  0  0  0  0  0  0
   -0.7500   -1.2990    0.0000 C   0  0  0  0  0  0  0  0  0  0  0  0
   -1.5000    0.0000    0.0000 C   0  0  0  0  0  0  0  0  0  0  0  0
   -3.0000    0.0000    0.0000 F   0  0  0  0  0  0  0  0  0  0  0  0
   -0.7500    1.2990    0.0000 C   0  0  0  0  0  0  0  0  0  0  0  0
    0.7500    1.2990    0.0000 C   0  0  0  0  0  0  0  0  0  0  0  0
  1  2  2  0
  2  3  1  0
  3  4  2  0
  4  5  1  0
  5  6  1  0
  5  7  1  0
  5  8  1  0
  4  9  1  0
  9 10  1  0
  9 11  1  0
  9 12  1  0
  2 13  1  0
 13 14  2  0
 14 15  1  0
 15 16  2  0
 16 17  1  0
 16 18  1  0
 18 19  2  0
 19 13  1  0
M  END
$$$$

     RDKit          2D

 13 12  0  0  0  0  0  0  0  0999 V2000
    0.0000    0.0000    0.0000 C   0  0  0  0  0  0  0  0  0  0  0  0
    1.2990    0.7500    0.0000 C   0  0  0  0  0  0  0  0  0  0  0  0
    1.2990    2.2500    0.0000 O   0  0  0  0  0  0  0  0  0  0  0  0
    2.5981   -0.0000    0.0000 C   0  0  0  0  0  0  0  0  0  0  0  0
    3.3481    1.2990    0.0000 F   0  0  0  0  0  0  0  0  0  0  0  0
    1.8481   -1.2990    0.0000 F   0  0  0  0  0  0  0  0  0  0  0  0
    3.8971   -0.7500    0.0000 C   0  0  0  0  0  0  0  0  0  0  0  0
    3.1471   -2.0490    0.0000 F   0  0  0  0  0  0  0  0  0  0  0  0
    4.6471    0.5490    0.0000 F   0  0  0  0  0  0  0  0  0  0  0  0
    5.1962   -1.5000    0.0000 C   0  0  0  0  0  0  0  0  0  0  0  0
    6.4952   -2.2500    0.0000 F   0  0  0  0  0  0  0  0  0  0  0  0
    5.9462   -0.2010    0.0000 F   0  0  0  0  0  0  0  0  0  0  0  0
    4.4462   -2.7990    0.0000 F   0  0  0  0  0  0  0  0  0  0  0  0
  1  2  1  0
  2  3  2  0
  2  4  1  0
  4  5  1  0
  4  6  1  0
  4  7  1  0
  7  8  1  0
  7  9  1  0
  7 10  1  0
 10 11  1  0
 10 12  1  0
 10 13  1  0
M  END
$$$$

     RDKit          2D

 21 20  0  0  0  0  0  0  0  0999 V2000
   -1.2990    0.7500    0.0000 F   0  0  0  0  0  0  0  0  0  0  0  0
    0.0000    0.0000    0.0000 C   0  0  0  0  0  0  0  0  0  0  0  0
   -0.0000   -1.5000    0.0000 F   0  0  0  0  0  0  0  0  0  0  0  0
    1.2990    0.7500    0.0000 C   0  0  0  0  0  0  0  0  0  0  0  0
    1.2990    2.2500    0.0000 F   0  0  0  0  0  0  0  0  0  0  0  0
    2.5981   -0.0000    0.0000 C   0  0  0  0  0  0  0  0  0  0  0  0
    3.3481    1.2990    0.0000 F   0  0  0  0  0  0  0  0  0  0  0  0
    1.8481   -1.2990    0.0000 F   0  0  0  0  0  0  0  0  0  0  0  0
    3.8971   -0.7500    0.0000 C   0  0  0  0  0  0  0  0  0  0  0  0
    3.1471   -2.0490    0.0000 F   0  0  0  0  0  0  0  0  0  0  0  0
    4.6471    0.5490    0.0000 F   0  0  0  0  0  0  0  0  0  0  0  0
    5.1962   -1.5000    0.0000 C   0  0  0  0  0  0  0  0  0  0  0  0
    5.9462   -0.2010    0.0000 F   0  0  0  0  0  0  0  0  0  0  0  0
    4.4462   -2.7990    0.0000 F   0  0  0  0  0  0  0  0  0  0  0  0
    6.4952   -2.2500    0.0000 C   0  0  0  0  0  0  0  0  0  0  0  0
    5.7452   -3.5490    0.0000 F   0  0  0  0  0  0  0  0  0  0  0  0
    7.2452   -0.9510    0.0000 F   0  0  0  0  0  0  0  0  0  0  0  0
    7.7942   -3.0000    0.0000 C   0  0  0  0  0  0  0  0  0  0  0  0
    9.0933   -3.7500    0.0000 F   0  0  0  0  0  0  0  0  0  0  0  0
    8.5442   -1.7010    0.0000 F   0  0  0  0  0  0  0  0  0  0  0  0
    7.0442   -4.2990    0.0000 F   0  0  0  0  0  0  0  0  0  0  0  0
  1  2  1  0
  2  3  1  0
  2  4  2  0
  4  5  1  0
  4  6  1  0
  6  7  1  0
  6  8  1  0
  6  9  1  0
  9 10  1  0
  9 11  1  0
  9 12  1  0
 12 13  1  0
 12 14  1  0
 12 15  1  0
 15 16  1  0
 15 17  1  0
 15 18  1  0
 18 19  1  0
 18 20  1  0
 18 21  1  0
M  END
$$$$

     RDKit          2D

 12 11  0  0  0  0  0  0  0  0999 V2000
   -1.2990    0.7500    0.0000 O   0  0  0  0  0  0  0  0  0  0  0  0
    0.0000    0.0000    0.0000 C   0  0  0  0  0  0  0  0  0  0  0  0
   -0.0000   -1.5000    0.0000 Cl  0  0  0  0  0  0  0  0  0  0  0  0
    1.2990    0.7500    0.0000 C   0  0  0  0  0  0  0  0  0  0  0  0
    0.5490    2.0490    0.0000 F   0  0  0  0  0  0  0  0  0  0  0  0
    2.0490   -0.5490    0.0000 F   0  0  0  0  0  0  0  0  0  0  0  0
    2.5981    1.5000    0.0000 C   0  0  0  0  0  0  0  0  0  0  0  0
    1.8481    2.7990    0.0000 F   0  0  0  0  0  0  0  0  0  0  0  0
    3.3481    0.2010    0.0000 F   0  0  0  0  0  0  0  0  0  0  0  0
    3.8971    2.2500    0.0000 C   0  0  0  0  0  0  0  0  0  0  0  0
    5.1962    1.5000    0.0000 O   0  0  0  0  0  0  0  0  0  0  0  0
    3.8971    3.7500    0.0000 Cl  0  0  0  0  0  0  0  0  0  0  0  0
  1  2  2  0
  2  3  1  0
  2  4  1  0
  4  5  1  0
  4  6  1  0
  4  7  1  0
  7  8  1  0
  7  9  1  0
  7 10  1  0
 10 11  2  0
 10 12  1  0
M  END
$$$$

     RDKit          2D

 20 20  0  0  0  0  0  0  0  0999 V2000
    4.5000    0.0000    0.0000 F   0  0  0  0  0  0  0  0  0  0  0  0
    3.0000   -0.0000    0.0000 C   0  0  0  0  0  0  0  0  0  0  0  0
    3.1828    1.4888    0.0000 F   0  0  0  0  0  0  0  0  0  0  0  0
    3.1828   -1.4888    0.0000 F   0  0  0  0  0  0  0  0  0  0  0  0
    1.5000    0.0000    0.0000 N   0  0  0  0  0  0  0  0  0  0  0  0
    0.7500   -1.2990    0.0000 C   0  0  0  0  0  0  0  0  0  0  0  0
    2.0865   -1.9801    0.0000 F   0  0  0  0  0  0  0  0  0  0  0  0
    0.4895   -2.7762    0.0000 F   0  0  0  0  0  0  0  0  0  0  0  0
   -0.7500   -1.2990    0.0000 C   0  0  0  0  0  0  0  0  0  0  0  0
   -0.4895   -2.7762    0.0000 F   0  0  0  0  0  0  0  0  0  0  0  0
   -2.1595   -1.8121    0.0000 F   0  0  0  0  0  0  0  0  0  0  0  0
   -1.5000    0.0000    0.0000 C   0  0  0  0  0  0  0  0  0  0  0  0
   -2.6491   -0.9642    0.0000 F   0  0  0  0  0  0  0  0  0  0  0  0
   -2.6491    0.9642    0.0000 F   0  0  0  0  0  0  0  0  0  0  0  0
   -0.7500    1.2990    0.0000 C   0  0  0  0  0  0  0  0  0  0  0  0
   -2.1595    1.8121    0.0000 F   0  0  0  0  0  0  0  0  0  0  0  0
   -0.4895    2.7762    0.0000 F   0  0  0  0  0  0  0  0  0  0  0  0
    0.7500    1.2990    0.0000 C   0  0  0  0  0  0  0  0  0  0  0  0
    0.4895    2.7762    0.0000 F   0  0  0  0  0  0  0  0  0  0  0  0
    2.0865    1.9801    0.0000 F   0  0  0  0  0  0  0  0  0  0  0  0
  1  2  1  0
  2  3  1  0
  2  4  1  0
  2  5  1  0
  5  6  1  0
  6  7  1  0
  6  8  1  0
  6  9  1  0
  9 10  1  0
  9 11  1  0
  9 12  1  0
 12 13  1  0
 12 14  1  0
 12 15  1  0
 15 16  1  0
 15 17  1  0
 15 18  1  0
 18 19  1  0
 18 20  1  0
 18  5  1  0
M  END
$$$$

     RDKit          2D

 12 11  0  0  0  0  0  0  0  0999 V2000
    5.1962    3.0000    0.0000 F   0  0  0  0  0  0  0  0  0  0  0  0
    3.8971    2.2500    0.0000 C   0  0  0  0  0  0  0  0  0  0  0  0
    4.6471    0.9510    0.0000 F   0  0  0  0  0  0  0  0  0  0  0  0
    3.1471    3.5490    0.0000 F   0  0  0  0  0  0  0  0  0  0  0  0
    2.5981    1.5000    0.0000 C   0  0  0  0  0  0  0  0  0  0  0  0
    1.8481    2.7990    0.0000 F   0  0  0  0  0  0  0  0  0  0  0  0
    3.3481    0.2010    0.0000 F   0  0  0  0  0  0  0  0  0  0  0  0
    1.2990    0.7500    0.0000 C   0  0  0  0  0  0  0  0  0  0  0  0
    0.5490    2.0490    0.0000 F   0  0  0  0  0  0  0  0  0  0  0  0
    2.0490   -0.5490    0.0000 F   0  0  0  0  0  0  0  0  0  0  0  0
    0.0000    0.0000    0.0000 C   0  0  0  0  0  0  0  0  0  0  0  0
   -1.2990    0.7500    0.0000 Cl  0  0  0  0  0  0  0  0  0  0  0  0
  1  2  1  0
  2  3  1  0
  2  4  1  0
  2  5  1  0
  5  6  1  0
  5  7  1  0
  5  8  1  0
  8  9  1  0
  8 10  1  0
  8 11  1  0
 11 12  1  0
M  END
$$$$

     RDKit          2D

 21 20  0  0  0  0  0  0  0  0999 V2000
   -1.2990    0.7500    0.0000 O   0  0  0  0  0  0  0  0  0  0  0  0
    0.0000    0.0000    0.0000 C   0  0  0  0  0  0  0  0  0  0  0  0
    1.2990    0.7500    0.0000 C   0  0  0  0  0  0  0  0  0  0  0  0
    2.0490   -0.5490    0.0000 F   0  0  0  0  0  0  0  0  0  0  0  0
    0.5490    2.0490    0.0000 F   0  0  0  0  0  0  0  0  0  0  0  0
    2.5981    1.5000    0.0000 C   0  0  0  0  0  0  0  0  0  0  0  0
    1.8481    2.7990    0.0000 F   0  0  0  0  0  0  0  0  0  0  0  0
    3.3481    0.2010    0.0000 F   0  0  0  0  0  0  0  0  0  0  0  0
    3.8971    2.2500    0.0000 C   0  0  0  0  0  0  0  0  0  0  0  0
    4.6471    0.9510    0.0000 F   0  0  0  0  0  0  0  0  0  0  0  0
    3.1471    3.5490    0.0000 F   0  0  0  0  0  0  0  0  0  0  0  0
    5.1962    3.0000    0.0000 C   0  0  0  0  0  0  0  0  0  0  0  0
    4.4462    4.2990    0.0000 F   0  0  0  0  0  0  0  0  0  0  0  0
    5.9462    1.7010    0.0000 F   0  0  0  0  0  0  0  0  0  0  0  0
    6.4952    3.7500    0.0000 C   0  0  0  0  0  0  0  0  0  0  0  0
    7.2452    2.4510    0.0000 F   0  0  0  0  0  0  0  0  0  0  0  0
    5.7452    5.0490    0.0000 F   0  0  0  0  0  0  0  0  0  0  0  0
    7.7942    4.5000    0.0000 C   0  0  0  0  0  0  0  0  0  0  0  0
    9.0933    5.2500    0.0000 F   0  0  0  0  0  0  0  0  0  0  0  0
    7.0442    5.7990    0.0000 F   0  0  0  0  0  0  0  0  0  0  0  0
    8.5442    3.2010    0.0000 F   0  0  0  0  0  0  0  0  0  0  0  0
  1  2  1  0
  2  3  1  0
  3  4  1  0
  3  5  1  0
  3  6  1  0
  6  7  1  0
  6  8  1  0
  6  9  1  0
  9 10  1  0
  9 11  1  0
  9 12  1  0
 12 13  1  0
 12 14  1  0
 12 15  1  0
 15 16  1  0
 15 17  1  0
 15 18  1  0
 18 19  1  0
 18 20  1  0
 18 21  1  0
M  END
$$$$

     RDKit          2D

  7  7  0  0  0  0  0  0  0  0999 V2000
    1.8302    1.1491    0.0000 F   0  0  0  0  0  0  0  0  0  0  0  0
    0.8660    0.0000    0.0000 C   0  0  0  0  0  0  0  0  0  0  0  0
    1.8302   -1.1491    0.0000 F   0  0  0  0  0  0  0  0  0  0  0  0
   -0.4330    0.7500    0.0000 C   0  0  0  0  0  0  0  0  0  0  0  0
   -0.4330   -0.7500    0.0000 C   0  0  0  0  0  0  0  0  0  0  0  0
    0.0800   -2.1595    0.0000 F   0  0  0  0  0  0  0  0  0  0  0  0
   -1.9102   -1.0105    0.0000 F   0  0  0  0  0  0  0  0  0  0  0  0
  1  2  1  0
  2  3  1  0
  2  4  1  0
  4  5  1  0
  5  6  1  0
  5  7  1  0
  5  2  1  0
M  END
$$$$

     RDKit          2D

 31 30  0  0  0  0  0  0  0  0999 V2000
   -2.0490   -0.5490    0.0000 O   0  0  0  0  0  0  0  0  0  0  0  0
   -1.2990    0.7500    0.0000 S   0  0  0  0  0  0  0  0  0  0  0  0
   -0.5490    2.0490    0.0000 O   0  0  0  0  0  0  0  0  0  0  0  0
   -2.5981    1.5000    0.0000 O   0  0  0  0  0  0  0  0  0  0  0  0
    0.0000    0.0000    0.0000 C   0  0  0  0  0  0  0  0  0  0  0  0
    1.2990    0.7500    0.0000 C   0  0  0  0  0  0  0  0  0  0  0  0
    2.5981   -0.0000    0.0000 C   0  0  0  0  0  0  0  0  0  0  0  0
    3.3481    1.2990    0.0000 F   0  0  0  0  0  0  0  0  0  0  0  0
    1.8481   -1.2990    0.0000 F   0  0  0  0  0  0  0  0  0  0  0  0
    3.8971   -0.7500    0.0000 C   0  0  0  0  0  0  0  0  0  0  0  0
    3.1471   -2.0490    0.0000 F   0  0  0  0  0  0  0  0  0  0  0  0
    4.6471    0.5490    0.0000 F   0  0  0  0  0  0  0  0  0  0  0  0
    5.1962   -1.5000    0.0000 C   0  0  0  0  0  0  0  0  0  0  0  0
    5.9462   -0.2010    0.0000 F   0  0  0  0  0  0  0  0  0  0  0  0
    4.4462   -2.7990    0.0000 F   0  0  0  0  0  0  0  0  0  0  0  0
    6.4952   -2.2500    0.0000 C   0  0  0  0  0  0  0  0  0  0  0  0
    5.7452   -3.5490    0.0000 F   0  0  0  0  0  0  0  0  0  0  0  0
    7.2452   -0.9510    0.0000 F   0  0  0  0  0  0  0  0  0  0  0  0
    7.7942   -3.0000    0.0000 C   0  0  0  0  0  0  0  0  0  0  0  0
    8.5442   -1.7010    0.0000 F   0  0  0  0  0  0  0  0  0  0  0  0
    7.0442   -4.2990    0.0000 F   0  0  0  0  0  0  0  0  0  0  0  0
    9.0933   -3.7500    0.0000 C   0  0  0  0  0  0  0  0  0  0  0  0
    8.3433   -5.0490    0.0000 F   0  0  0  0  0  0  0  0  0  0  0  0
    9.8433   -2.4510    0.0000 F   0  0  0  0  0  0  0  0  0  0  0  0
   10.3923   -4.5000    0.0000 C   0  0  0  0  0  0  0  0  0  0  0  0
   11.1423   -3.2010    0.0000 F   0  0  0  0  0  0  0  0  0  0  0  0
    9.6423   -5.7990    0.0000 F   0  0  0  0  0  0  0  0  0  0  0  0
   11.6913   -5.2500    0.0000 C   0  0  0  0  0  0  0  0  0  0  0  0
   12.9904   -6.0000    0.0000 F   0  0  0  0  0  0  0  0  0  0  0  0
   10.9413   -6.5490    0.0000 F   0  0  0  0  0  0  0  0  0  0  0  0
   12.4413   -3.9510    0.0000 F   0  0  0  0  0  0  0  0  0  0  0  0
  1  2  2  0
  2  3  2  0
  2  4  1  0
  2  5  1  0
  5  6  1  0
  6  7  1  0
  7  8  1  0
  7  9  1  0
  7 10  1  0
 10 11  1  0
 10 12  1  0
 10 13  1  0
 13 14  1  0
 13 15  1  0
 13 16  1  0
 16 17  1  0
 16 18  1  0
 16 19  1  0
 19 20  1  0
 19 21  1  0
 19 22  1  0
 22 23  1  0
 22 24  1  0
 22 25  1  0
 25 26  1  0
 25 27  1  0
 25 28  1  0
 28 29  1  0
 28 30  1  0
 28 31  1  0
M  END
$$$$

     RDKit          2D

 30 29  0  0  0  0  0  0  0  0999 V2000
    0.0000    0.0000    0.0000 C   0  0  0  0  0  0  0  0  0  0  0  0
    1.2990    0.7500    0.0000 C   0  0  0  0  0  0  0  0  0  0  0  0
    2.5981   -0.0000    0.0000 C   0  0  0  0  0  0  0  0  0  0  0  0
    2.5981   -1.5000    0.0000 O   0  0  0  0  0  0  0  0  0  0  0  0
    3.8971    0.7500    0.0000 O   0  0  0  0  0  0  0  0  0  0  0  0
    5.1962   -0.0000    0.0000 C   0  0  0  0  0  0  0  0  0  0  0  0
    6.4952    0.7500    0.0000 C   0  0  0  0  0  0  0  0  0  0  0  0
    7.2452   -0.5490    0.0000 F   0  0  0  0  0  0  0  0  0  0  0  0
    5.7452    2.0490    0.0000 F   0  0  0  0  0  0  0  0  0  0  0  0
    7.7942    1.5000    0.0000 C   0  0  0  0  0  0  0  0  0  0  0  0
    7.0442    2.7990    0.0000 F   0  0  0  0  0  0  0  0  0  0  0  0
    8.5442    0.2010    0.0000 F   0  0  0  0  0  0  0  0  0  0  0  0
    9.0933    2.2500    0.0000 C   0  0  0  0  0  0  0  0  0  0  0  0
    9.8433    0.9510    0.0000 F   0  0  0  0  0  0  0  0  0  0  0  0
    8.3433    3.5490    0.0000 F   0  0  0  0  0  0  0  0  0  0  0  0
   10.3923    3.0000    0.0000 C   0  0  0  0  0  0  0  0  0  0  0  0
    9.6423    4.2990    0.0000 F   0  0  0  0  0  0  0  0  0  0  0  0
   11.1423    1.7010    0.0000 F   0  0  0  0  0  0  0  0  0  0  0  0
   11.6913    3.7500    0.0000 C   0  0  0  0  0  0  0  0  0  0  0  0
   10.9413    5.0490    0.0000 F   0  0  0  0  0  0  0  0  0  0  0  0
   12.4413    2.4510    0.0000 F   0  0  0  0  0  0  0  0  0  0  0  0
   12.9904    4.5000    0.0000 C   0  0  0  0  0  0  0  0  0  0  0  0
   13.7404    3.2010    0.0000 F   0  0  0  0  0  0  0  0  0  0  0  0
   12.2404    5.7990    0.0000 F   0  0  0  0  0  0  0  0  0  0  0  0
   14.2894    5.2500    0.0000 C   0  0  0  0  0  0  0  0  0  0  0  0
   13.5394    6.5490    0.0000 F   0  0  0  0  0  0  0  0  0  0  0  0
   15.0394    3.9510    0.0000 F   0  0  0  0  0  0  0  0  0  0  0  0
   15.5885    6.0000    0.0000 C   0  0  0  0  0  0  0  0  0  0  0  0
   15.5885    7.5000    0.0000 F   0  0  0  0  0  0  0  0  0  0  0  0
   16.8875    5.2500    0.0000 F   0  0  0  0  0  0  0  0  0  0  0  0
  1  2  2  0
  2  3  1  0
  3  4  2  0
  3  5  1  0
  5  6  1  0
  6  7  1  0
  7  8  1  0
  7  9  1  0
  7 10  1  0
 10 11  1  0
 10 12  1  0
 10 13  1  0
 13 14  1  0
 13 15  1  0
 13 16  1  0
 16 17  1  0
 16 18  1  0
 16 19  1  0
 19 20  1  0
 19 21  1  0
 19 22  1  0
 22 23  1  0
 22 24  1  0
 22 25  1  0
 25 26  1  0
 25 27  1  0
 25 28  1  0
 28 29  1  0
 28 30  1  0
M  END
$$$$

     RDKit          2D

  9  8  0  0  0  0  0  0  0  0999 V2000
   -1.2990    0.7500    0.0000 N   0  0  0  0  0  0  0  0  0  0  0  0
    0.0000    0.0000    0.0000 C   0  0  0  0  0  0  0  0  0  0  0  0
    1.2990    0.7500    0.0000 C   0  0  0  0  0  0  0  0  0  0  0  0
    2.0490   -0.5490    0.0000 F   0  0  0  0  0  0  0  0  0  0  0  0
    0.5490    2.0490    0.0000 F   0  0  0  0  0  0  0  0  0  0  0  0
    2.5981    1.5000    0.0000 C   0  0  0  0  0  0  0  0  0  0  0  0
    3.8971    2.2500    0.0000 F   0  0  0  0  0  0  0  0  0  0  0  0
    1.8481    2.7990    0.0000 F   0  0  0  0  0  0  0  0  0  0  0  0
    3.3481    0.2010    0.0000 F   0  0  0  0  0  0  0  0  0  0  0  0
  1  2  1  0
  2  3  1  0
  3  4  1  0
  3  5  1  0
  3  6  1  0
  6  7  1  0
  6  8  1  0
  6  9  1  0
M  END
$$$$

     RDKit          2D

 18 17  0  0  0  0  0  0  0  0999 V2000
    0.0000    0.0000    0.0000 C   0  0  0  0  0  0  0  0  0  0  0  0
    1.2990    0.7500    0.0000 C   0  0  0  0  0  0  0  0  0  0  0  0
    2.5981   -0.0000    0.0000 O   0  0  0  0  0  0  0  0  0  0  0  0
    3.8971    0.7500    0.0000 C   0  0  0  0  0  0  0  0  0  0  0  0
    3.8971    2.2500    0.0000 O   0  0  0  0  0  0  0  0  0  0  0  0
    5.1962   -0.0000    0.0000 C   0  0  0  0  0  0  0  0  0  0  0  0
    5.9462    1.2990    0.0000 F   0  0  0  0  0  0  0  0  0  0  0  0
    4.4462   -1.2990    0.0000 F   0  0  0  0  0  0  0  0  0  0  0  0
    6.4952   -0.7500    0.0000 C   0  0  0  0  0  0  0  0  0  0  0  0
    5.7452   -2.0490    0.0000 F   0  0  0  0  0  0  0  0  0  0  0  0
    7.2452    0.5490    0.0000 F   0  0  0  0  0  0  0  0  0  0  0  0
    7.7942   -1.5000    0.0000 C   0  0  0  0  0  0  0  0  0  0  0  0
    8.5442   -0.2010    0.0000 F   0  0  0  0  0  0  0  0  0  0  0  0
    7.0442   -2.7990    0.0000 F   0  0  0  0  0  0  0  0  0  0  0  0
    9.0933   -2.2500    0.0000 C   0  0  0  0  0  0  0  0  0  0  0  0
   10.3923   -3.0000    0.0000 F   0  0  0  0  0  0  0  0  0  0  0  0
    8.3433   -3.5490    0.0000 F   0  0  0  0  0  0  0  0  0  0  0  0
    9.8433   -0.9510    0.0000 F   0  0  0  0  0  0  0  0  0  0  0  0
  1  2  2  0
  2  3  1  0
  3  4  1  0
  4  5  2  0
  4  6  1  0
  6  7  1  0
  6  8  1  0
  6  9  1  0
  9 10  1  0
  9 11  1  0
  9 12  1  0
 12 13  1  0
 12 14  1  0
 12 15  1  0
 15 16  1  0
 15 17  1  0
 15 18  1  0
M  END
$$$$

     RDKit          2D

 14 13  0  0  0  0  0  0  0  0999 V2000
   -1.5000    0.0000    0.0000 F   0  0  0  0  0  0  0  0  0  0  0  0
    0.0000    0.0000    0.0000 C   0  0  0  0  0  0  0  0  0  0  0  0
    0.0000    1.5000    0.0000 F   0  0  0  0  0  0  0  0  0  0  0  0
   -0.1080   -0.8791    0.0000 F   0  0  0  0  0  0  0  0  0  0  0  0
    1.5000    0.0000    0.0000 C   0  0  0  0  0  0  0  0  0  0  0  0
    1.5000    1.5000    0.0000 I   0  0  0  0  0  0  0  0  0  0  0  0
    3.0000    0.0000    0.0000 C   0  0  0  0  0  0  0  0  0  0  0  0
    4.5000    0.0000    0.0000 F   0  0  0  0  0  0  0  0  0  0  0  0
    3.0000    1.5000    0.0000 F   0  0  0  0  0  0  0  0  0  0  0  0
    3.1080   -0.8791    0.0000 F   0  0  0  0  0  0  0  0  0  0  0  0
    1.5000   -1.5000    0.0000 C   0  0  0  0  0  0  0  0  0  0  0  0
    1.5000   -3.0000    0.0000 F   0  0  0  0  0  0  0  0  0  0  0  0
    0.6209   -1.6080    0.0000 F   0  0  0  0  0  0  0  0  0  0  0  0
    2.3791   -1.6080    0.0000 F   0  0  0  0  0  0  0  0  0  0  0  0
  1  2  1  0
  2  3  1  0
  2  4  1  0
  2  5  1  0
  5  6  1  0
  5  7  1  0
  7  8  1  0
  7  9  1  0
  7 10  1  0
  5 11  1  0
 11 12  1  0
 11 13  1  0
 11 14  1  0
M  END
$$$$

     RDKit          2D

 10  9  0  0  0  0  0  0  0  0999 V2000
    3.8971    2.2500    0.0000 O   0  0  0  0  0  0  0  0  0  0  0  0
    2.5981    1.5000    0.0000 C   0  0  0  0  0  0  0  0  0  0  0  0
    1.8481    2.7990    0.0000 F   0  0  0  0  0  0  0  0  0  0  0  0
    3.3481    0.2010    0.0000 F   0  0  0  0  0  0  0  0  0  0  0  0
    1.2990    0.7500    0.0000 C   0  0  0  0  0  0  0  0  0  0  0  0
    2.0490   -0.5490    0.0000 F   0  0  0  0  0  0  0  0  0  0  0  0
    0.5490    2.0490    0.0000 F   0  0  0  0  0  0  0  0  0  0  0  0
    0.0000    0.0000    0.0000 C   0  0  0  0  0  0  0  0  0  0  0  0
   -1.2990    0.7500    0.0000 F   0  0  0  0  0  0  0  0  0  0  0  0
   -0.0000   -1.5000    0.0000 F   0  0  0  0  0  0  0  0  0  0  0  0
  1  2  1  0
  2  3  1  0
  2  4  1  0
  2  5  1  0
  5  6  1  0
  5  7  1  0
  5  8  1  0
  8  9  1  0
  8 10  1  0
M  END
$$$$

     RDKit          2D

 13 13  0  0  0  0  0  0  0  0999 V2000
    3.0000    0.0000    0.0000 O   0  0  0  0  0  0  0  0  0  0  0  0
    1.5000    0.0000    0.0000 C   0  0  0  0  0  0  0  0  0  0  0  0
    0.7500   -1.2990    0.0000 C   0  0  0  0  0  0  0  0  0  0  0  0
   -0.7500   -1.2990    0.0000 C   0  0  0  0  0  0  0  0  0  0  0  0
   -1.5000    0.0000    0.0000 C   0  0  0  0  0  0  0  0  0  0  0  0
   -0.7500    1.2990    0.0000 C   0  0  0  0  0  0  0  0  0  0  0  0
   -1.5000    2.5981    0.0000 C   0  0  0  0  0  0  0  0  0  0  0  0
   -0.2010    3.3481    0.0000 F   0  0  0  0  0  0  0  0  0  0  0  0
   -2.7990    1.8481    0.0000 F   0  0  0  0  0  0  0  0  0  0  0  0
   -2.2500    3.8971    0.0000 C   0  0  0  0  0  0  0  0  0  0  0  0
   -3.7500    3.8971    0.0000 F   0  0  0  0  0  0  0  0  0  0  0  0
   -1.5000    5.1962    0.0000 F   0  0  0  0  0  0  0  0  0  0  0  0
    0.7500    1.2990    0.0000 C   0  0  0  0  0  0  0  0  0  0  0  0
  1  2  1  0
  2  3  2  0
  3  4  1  0
  4  5  2  0
  5  6  1  0
  6  7  1  0
  7  8  1  0
  7  9  1  0
  7 10  1  0
 10 11  1  0
 10 12  1  0
  6 13  2  0
 13  2  1  0
M  END
$$$$

     RDKit          2D

 26 27  0  0  0  0  0  0  0  0999 V2000
    2.6491    0.9642    0.0000 F   0  0  0  0  0  0  0  0  0  0  0  0
    1.5000    0.0000    0.0000 C   0  0  0  0  0  0  0  0  0  0  0  0
    2.7580   -0.8169    0.0000 F   0  0  0  0  0  0  0  0  0  0  0  0
    0.7500   -1.2990    0.0000 C   0  0  0  0  0  0  0  0  0  0  0  0
   -0.7500   -1.2990    0.0000 C   0  0  0  0  0  0  0  0  0  0  0  0
   -1.5000    0.0000    0.0000 C   0  0  0  0  0  0  0  0  0  0  0  0
   -2.7580   -0.8169    0.0000 F   0  0  0  0  0  0  0  0  0  0  0  0
   -2.6491    0.9642    0.0000 F   0  0  0  0  0  0  0  0  0  0  0  0
   -0.7500    1.2990    0.0000 C   0  0  0  0  0  0  0  0  0  0  0  0
   -2.1595    1.8121    0.0000 F   0  0  0  0  0  0  0  0  0  0  0  0
   -0.4895    2.7762    0.0000 F   0  0  0  0  0  0  0  0  0  0  0  0
    0.7500    1.2990    0.0000 C   0  0  0  0  0  0  0  0  0  0  0  0
    0.4895    2.7762    0.0000 F   0  0  0  0  0  0  0  0  0  0  0  0
    2.1595    1.8121    0.0000 F   0  0  0  0  0  0  0  0  0  0  0  0
   -1.5000   -2.5981    0.0000 C   0  0  0  0  0  0  0  0  0  0  0  0
   -2.6491   -3.5623    0.0000 F   0  0  0  0  0  0  0  0  0  0  0  0
   -2.7580   -1.7812    0.0000 F   0  0  0  0  0  0  0  0  0  0  0  0
   -0.7500   -3.8971    0.0000 C   0  0  0  0  0  0  0  0  0  0  0  0
   -0.4895   -5.3743    0.0000 F   0  0  0  0  0  0  0  0  0  0  0  0
   -2.1595   -4.4101    0.0000 F   0  0  0  0  0  0  0  0  0  0  0  0
    0.7500   -3.8971    0.0000 C   0  0  0  0  0  0  0  0  0  0  0  0
    2.1595   -4.4101    0.0000 F   0  0  0  0  0  0  0  0  0  0  0  0
    0.4895   -5.3743    0.0000 F   0  0  0  0  0  0  0  0  0  0  0  0
    1.5000   -2.5981    0.0000 C   0  0  0  0  0  0  0  0  0  0  0  0
    2.7580   -1.7812    0.0000 F   0  0  0  0  0  0  0  0  0  0  0  0
    2.6491   -3.5623    0.0000 F   0  0  0  0  0  0  0  0  0  0  0  0
  1  2  1  0
  2  3  1  0
  2  4  1  0
  4  5  2  0
  5  6  1  0
  6  7  1  0
  6  8  1  0
  6  9  1  0
  9 10  1  0
  9 11  1  0
  9 12  1  0
 12 13  1  0
 12 14  1  0
  5 15  1  0
 15 16  1  0
 15 17  1  0
 15 18  1  0
 18 19  1  0
 18 20  1  0
 18 21  1  0
 21 22  1  0
 21 23  1  0
 21 24  1  0
 24 25  1  0
 24 26  1  0
 12  2  1  0
 24  4  1  0
M  END
$$$$

     RDKit          2D

 13 12  0  0  0  0  0  0  0  0999 V2000
    0.0000    0.0000    0.0000 C   0  0  0  0  0  0  0  0  0  0  0  0
    1.2990    0.7500    0.0000 C   0  0  0  0  0  0  0  0  0  0  0  0
    2.5981   -0.0000    0.0000 C   0  0  0  0  0  0  0  0  0  0  0  0
    3.8971    0.7500    0.0000 O   0  0  0  0  0  0  0  0  0  0  0  0
    5.1962   -0.0000    0.0000 C   0  0  0  0  0  0  0  0  0  0  0  0
    5.1962   -1.5000    0.0000 O   0  0  0  0  0  0  0  0  0  0  0  0
    6.4952    0.7500    0.0000 C   0  0  0  0  0  0  0  0  0  0  0  0
    7.2452   -0.5490    0.0000 F   0  0  0  0  0  0  0  0  0  0  0  0
    5.7452    2.0490    0.0000 F   0  0  0  0  0  0  0  0  0  0  0  0
    7.7942    1.5000    0.0000 C   0  0  0  0  0  0  0  0  0  0  0  0
    9.0933    2.2500    0.0000 F   0  0  0  0  0  0  0  0  0  0  0  0
    7.0442    2.7990    0.0000 F   0  0  0  0  0  0  0  0  0  0  0  0
    8.5442    0.2010    0.0000 F   0  0  0  0  0  0  0  0  0  0  0  0
  1  2  2  0
  2  3  1  0
  3  4  1  0
  4  5  1  0
  5  6  2  0
  5  7  1  0
  7  8  1  0
  7  9  1  0
  7 10  1  0
 10 11  1  0
 10 12  1  0
 10 13  1  0
M  END
$$$$

     RDKit          2D

 18 17  0  0  0  0  0  0  0  0999 V2000
   -1.5000    0.0000    0.0000 F   0  0  0  0  0  0  0  0  0  0  0  0
    0.0000    0.0000    0.0000 C   0  0  0  0  0  0  0  0  0  0  0  0
    0.0000    1.5000    0.0000 F   0  0  0  0  0  0  0  0  0  0  0  0
   -0.0000   -1.5000    0.0000 Cl  0  0  0  0  0  0  0  0  0  0  0  0
    1.5000    0.0000    0.0000 C   0  0  0  0  0  0  0  0  0  0  0  0
    1.5000   -1.5000    0.0000 F   0  0  0  0  0  0  0  0  0  0  0  0
    1.5000    1.5000    0.0000 F   0  0  0  0  0  0  0  0  0  0  0  0
    3.0000    0.0000    0.0000 C   0  0  0  0  0  0  0  0  0  0  0  0
    3.0000    1.5000    0.0000 Cl  0  0  0  0  0  0  0  0  0  0  0  0
    3.0000   -1.5000    0.0000 Cl  0  0  0  0  0  0  0  0  0  0  0  0
    4.5000    0.0000    0.0000 O   0  0  0  0  0  0  0  0  0  0  0  0
    5.2500   -1.2990    0.0000 C   0  0  0  0  0  0  0  0  0  0  0  0
    3.9510   -2.0490    0.0000 F   0  0  0  0  0  0  0  0  0  0  0  0
    6.5490   -0.5490    0.0000 F   0  0  0  0  0  0  0  0  0  0  0  0
    6.0000   -2.5981    0.0000 C   0  0  0  0  0  0  0  0  0  0  0  0
    6.7500   -3.8971    0.0000 F   0  0  0  0  0  0  0  0  0  0  0  0
    4.7010   -3.3481    0.0000 Cl  0  0  0  0  0  0  0  0  0  0  0  0
    7.2990   -1.8481    0.0000 Cl  0  0  0  0  0  0  0  0  0  0  0  0
  1  2  1  0
  2  3  1  0
  2  4  1  0
  2  5  1  0
  5  6  1  0
  5  7  1  0
  5  8  1  0
  8  9  1  0
  8 10  1  0
  8 11  1  0
 11 12  1  0
 12 13  1  0
 12 14  1  0
 12 15  1  0
 15 16  1  0
 15 17  1  0
 15 18  1  0
M  END
$$$$

     RDKit          2D

 23 22  0  0  0  0  0  0  0  0999 V2000
   -0.0000   -1.5000    0.0000 O   0  0  0  0  0  0  0  0  0  0  0  0
    0.0000    0.0000    0.0000 C   0  0  0  0  0  0  0  0  0  0  0  0
    1.5000    0.0000    0.0000 C   0  0  0  0  0  0  0  0  0  0  0  0
    1.5000   -1.5000    0.0000 F   0  0  0  0  0  0  0  0  0  0  0  0
    1.6080    0.8791    0.0000 F   0  0  0  0  0  0  0  0  0  0  0  0
    3.0000    0.0000    0.0000 C   0  0  0  0  0  0  0  0  0  0  0  0
    4.5000    0.0000    0.0000 F   0  0  0  0  0  0  0  0  0  0  0  0
    3.0000    1.5000    0.0000 F   0  0  0  0  0  0  0  0  0  0  0  0
    3.0000   -1.5000    0.0000 F   0  0  0  0  0  0  0  0  0  0  0  0
   -1.5000    0.0000    0.0000 C   0  0  0  0  0  0  0  0  0  0  0  0
   -1.6080    0.8791    0.0000 F   0  0  0  0  0  0  0  0  0  0  0  0
   -1.5000   -1.5000    0.0000 F   0  0  0  0  0  0  0  0  0  0  0  0
   -3.0000   -0.0000    0.0000 C   0  0  0  0  0  0  0  0  0  0  0  0
   -4.5000   -0.0000    0.0000 F   0  0  0  0  0  0  0  0  0  0  0  0
   -3.0000   -1.5000    0.0000 F   0  0  0  0  0  0  0  0  0  0  0  0
   -3.0000    1.5000    0.0000 F   0  0  0  0  0  0  0  0  0  0  0  0
    0.0000    1.5000    0.0000 C   0  0  0  0  0  0  0  0  0  0  0  0
   -0.8791    1.6080    0.0000 F   0  0  0  0  0  0  0  0  0  0  0  0
    0.8791    1.6080    0.0000 F   0  0  0  0  0  0  0  0  0  0  0  0
    0.0000    3.0000    0.0000 C   0  0  0  0  0  0  0  0  0  0  0  0
   -0.0000    4.5000    0.0000 F   0  0  0  0  0  0  0  0  0  0  0  0
    1.5000    3.0000    0.0000 F   0  0  0  0  0  0  0  0  0  0  0  0
   -1.5000    3.0000    0.0000 F   0  0  0  0  0  0  0  0  0  0  0  0
  1  2  1  0
  2  3  1  0
  3  4  1  0
  3  5  1  0
  3  6  1  0
  6  7  1  0
  6  8  1  0
  6  9  1  0
  2 10  1  0
 10 11  1  0
 10 12  1  0
 10 13  1  0
 13 14  1  0
 13 15  1  0
 13 16  1  0
  2 17  1  0
 17 18  1  0
 17 19  1  0
 17 20  1  0
 20 21  1  0
 20 22  1  0
 20 23  1  0
M  END
$$$$

     RDKit          2D

 10  9  0  0  0  0  0  0  0  0999 V2000
   -1.2990    0.7500    0.0000 F   0  0  0  0  0  0  0  0  0  0  0  0
    0.0000    0.0000    0.0000 C   0  0  0  0  0  0  0  0  0  0  0  0
   -0.0000   -1.5000    0.0000 F   0  0  0  0  0  0  0  0  0  0  0  0
    1.2990    0.7500    0.0000 C   0  0  0  0  0  0  0  0  0  0  0  0
    2.0490   -0.5490    0.0000 F   0  0  0  0  0  0  0  0  0  0  0  0
    0.5490    2.0490    0.0000 F   0  0  0  0  0  0  0  0  0  0  0  0
    2.5981    1.5000    0.0000 C   0  0  0  0  0  0  0  0  0  0  0  0
    3.8971    2.2500    0.0000 F   0  0  0  0  0  0  0  0  0  0  0  0
    1.8481    2.7990    0.0000 F   0  0  0  0  0  0  0  0  0  0  0  0
    3.3481    0.2010    0.0000 Br  0  0  0  0  0  0  0  0  0  0  0  0
  1  2  1  0
  2  3  1  0
  2  4  1  0
  4  5  1  0
  4  6  1  0
  4  7  1  0
  7  8  1  0
  7  9  1  0
  7 10  1  0
M  END
$$$$

     RDKit          2D

 31 30  0  0  0  0  0  0  0  0999 V2000
    0.0000    7.4952    0.0000 Cl  0  0  0  0  0  0  0  0  0  0  0  0
    5.2500   -1.2990    0.0000 N   0  0  0  0  0  0  0  0  0  0  0  0
    3.7500   -1.2990    0.0000 C   0  0  0  0  0  0  0  0  0  0  0  0
    3.0000    0.0000    0.0000 C   0  0  0  0  0  0  0  0  0  0  0  0
    1.5000    0.0000    0.0000 C   0  0  0  0  0  0  0  0  0  0  0  0
    0.7500   -1.2990    0.0000 C   0  0  0  0  0  0  0  0  0  0  0  0
   -0.7500   -1.2990    0.0000 C   0  0  0  0  0  0  0  0  0  0  0  0
   -1.5000   -2.5981    0.0000 O   0  0  0  0  0  0  0  0  0  0  0  0
   -3.0000   -2.5981    0.0000 C   0  0  0  0  0  0  0  0  0  0  0  0
   -3.0000   -1.0981    0.0000 F   0  0  0  0  0  0  0  0  0  0  0  0
   -3.0000   -4.0981    0.0000 F   0  0  0  0  0  0  0  0  0  0  0  0
   -4.5000   -2.5981    0.0000 C   0  0  0  0  0  0  0  0  0  0  0  0
   -5.2500   -1.2990    0.0000 F   0  0  0  0  0  0  0  0  0  0  0  0
   -5.2500   -3.8971    0.0000 F   0  0  0  0  0  0  0  0  0  0  0  0
   -1.5000    0.0000    0.0000 C   0  0  0  0  0  0  0  0  0  0  0  0
   -3.0000    0.0000    0.0000 O   0  0  0  0  0  0  0  0  0  0  0  0
   -3.7500    1.2990    0.0000 C   0  0  0  0  0  0  0  0  0  0  0  0
   -2.4510    2.0490    0.0000 F   0  0  0  0  0  0  0  0  0  0  0  0
   -5.0490    0.5490    0.0000 F   0  0  0  0  0  0  0  0  0  0  0  0
   -4.5000    2.5981    0.0000 C   0  0  0  0  0  0  0  0  0  0  0  0
   -6.0000    2.5981    0.0000 F   0  0  0  0  0  0  0  0  0  0  0  0
   -3.7500    3.8971    0.0000 F   0  0  0  0  0  0  0  0  0  0  0  0
   -0.7500    1.2990    0.0000 C   0  0  0  0  0  0  0  0  0  0  0  0
   -1.5000    2.5981    0.0000 O   0  0  0  0  0  0  0  0  0  0  0  0
   -0.7500    3.8971    0.0000 C   0  0  0  0  0  0  0  0  0  0  0  0
    0.5490    3.1471    0.0000 F   0  0  0  0  0  0  0  0  0  0  0  0
   -2.0490    4.6471    0.0000 F   0  0  0  0  0  0  0  0  0  0  0  0
    0.0000    5.1962    0.0000 C   0  0  0  0  0  0  0  0  0  0  0  0
    1.5000    5.1962    0.0000 F   0  0  0  0  0  0  0  0  0  0  0  0
   -0.7500    6.4952    0.0000 F   0  0  0  0  0  0  0  0  0  0  0  0
    0.7500    1.2990    0.0000 C   0  0  0  0  0  0  0  0  0  0  0  0
  2  3  1  0
  3  4  1  0
  4  5  1  0
  5  6  2  0
  6  7  1  0
  7  8  1  0
  8  9  1  0
  9 10  1  0
  9 11  1  0
  9 12  1  0
 12 13  1  0
 12 14  1  0
  7 15  2  0
 15 16  1  0
 16 17  1  0
 17 18  1  0
 17 19  1  0
 17 20  1  0
 20 21  1  0
 20 22  1  0
 15 23  1  0
 23 24  1  0
 24 25  1  0
 25 26  1  0
 25 27  1  0
 25 28  1  0
 28 29  1  0
 28 30  1  0
 23 31  2  0
 31  5  1  0
M  END
$$$$

     RDKit          2D

 25 24  0  0  0  0  0  0  0  0999 V2000
    0.0000    0.0000    0.0000 C   0  0  0  0  0  0  0  0  0  0  0  0
    1.2990    0.7500    0.0000 Si  0  0  0  0  0  4  0  0  0  0  0  0
    2.0490   -0.5490    0.0000 Cl  0  0  0  0  0  0  0  0  0  0  0  0
    0.5490    2.0490    0.0000 Cl  0  0  0  0  0  0  0  0  0  0  0  0
    2.5981    1.5000    0.0000 C   0  0  0  0  0  0  0  0  0  0  0  0
    2.5981    3.0000    0.0000 C   0  0  0  0  0  0  0  0  0  0  0  0
    3.8971    3.7500    0.0000 C   0  0  0  0  0  0  0  0  0  0  0  0
    3.1471    5.0490    0.0000 F   0  0  0  0  0  0  0  0  0  0  0  0
    4.6471    2.4510    0.0000 F   0  0  0  0  0  0  0  0  0  0  0  0
    5.1962    4.5000    0.0000 C   0  0  0  0  0  0  0  0  0  0  0  0
    5.9462    3.2010    0.0000 F   0  0  0  0  0  0  0  0  0  0  0  0
    4.4462    5.7990    0.0000 F   0  0  0  0  0  0  0  0  0  0  0  0
    6.4952    5.2500    0.0000 C   0  0  0  0  0  0  0  0  0  0  0  0
    5.7452    6.5490    0.0000 F   0  0  0  0  0  0  0  0  0  0  0  0
    7.2452    3.9510    0.0000 F   0  0  0  0  0  0  0  0  0  0  0  0
    7.7942    6.0000    0.0000 C   0  0  0  0  0  0  0  0  0  0  0  0
    8.5442    4.7010    0.0000 F   0  0  0  0  0  0  0  0  0  0  0  0
    7.0442    7.2990    0.0000 F   0  0  0  0  0  0  0  0  0  0  0  0
    9.0933    6.7500    0.0000 C   0  0  0  0  0  0  0  0  0  0  0  0
    8.3433    8.0490    0.0000 F   0  0  0  0  0  0  0  0  0  0  0  0
    9.8433    5.4510    0.0000 F   0  0  0  0  0  0  0  0  0  0  0  0
   10.3923    7.5000    0.0000 C   0  0  0  0  0  0  0  0  0  0  0  0
   11.6913    8.2500    0.0000 F   0  0  0  0  0  0  0  0  0  0  0  0
   11.1423    6.2010    0.0000 F   0  0  0  0  0  0  0  0  0  0  0  0
    9.6423    8.7990    0.0000 F   0  0  0  0  0  0  0  0  0  0  0  0
  1  2  1  0
  2  3  1  0
  2  4  1  0
  2  5  1  0
  5  6  1  0
  6  7  1  0
  7  8  1  0
  7  9  1  0
  7 10  1  0
 10 11  1  0
 10 12  1  0
 10 13  1  0
 13 14  1  0
 13 15  1  0
 13 16  1  0
 16 17  1  0
 16 18  1  0
 16 19  1  0
 19 20  1  0
 19 21  1  0
 19 22  1  0
 22 23  1  0
 22 24  1  0
 22 25  1  0
M  END
$$$$

     RDKit          2D

 18 17  0  0  0  0  0  0  0  0999 V2000
   -1.2990    0.7500    0.0000 F   0  0  0  0  0  0  0  0  0  0  0  0
    0.0000    0.0000    0.0000 C   0  0  0  0  0  0  0  0  0  0  0  0
   -0.0000   -1.5000    0.0000 F   0  0  0  0  0  0  0  0  0  0  0  0
    1.2990    0.7500    0.0000 C   0  0  0  0  0  0  0  0  0  0  0  0
    1.2990    2.2500    0.0000 F   0  0  0  0  0  0  0  0  0  0  0  0
    2.5981   -0.0000    0.0000 C   0  0  0  0  0  0  0  0  0  0  0  0
    3.3481    1.2990    0.0000 F   0  0  0  0  0  0  0  0  0  0  0  0
    1.8481   -1.2990    0.0000 F   0  0  0  0  0  0  0  0  0  0  0  0
    3.8971   -0.7500    0.0000 C   0  0  0  0  0  0  0  0  0  0  0  0
    3.1471   -2.0490    0.0000 F   0  0  0  0  0  0  0  0  0  0  0  0
    4.6471    0.5490    0.0000 F   0  0  0  0  0  0  0  0  0  0  0  0
    5.1962   -1.5000    0.0000 C   0  0  0  0  0  0  0  0  0  0  0  0
    5.9462   -0.2010    0.0000 F   0  0  0  0  0  0  0  0  0  0  0  0
    4.4462   -2.7990    0.0000 F   0  0  0  0  0  0  0  0  0  0  0  0
    6.4952   -2.2500    0.0000 C   0  0  0  0  0  0  0  0  0  0  0  0
    7.7942   -3.0000    0.0000 F   0  0  0  0  0  0  0  0  0  0  0  0
    5.7452   -3.5490    0.0000 F   0  0  0  0  0  0  0  0  0  0  0  0
    7.2452   -0.9510    0.0000 F   0  0  0  0  0  0  0  0  0  0  0  0
  1  2  1  0
  2  3  1  0
  2  4  2  0
  4  5  1  0
  4  6  1  0
  6  7  1  0
  6  8  1  0
  6  9  1  0
  9 10  1  0
  9 11  1  0
  9 12  1  0
 12 13  1  0
 12 14  1  0
 12 15  1  0
 15 16  1  0
 15 17  1  0
 15 18  1  0
M  END
$$$$

     RDKit          2D

 14 13  0  0  0  0  0  0  0  0999 V2000
   -3.8971   -2.2500    0.0000 F   0  0  0  0  0  0  0  0  0  0  0  0
   -3.8971   -0.7500    0.0000 C   0  0  0  0  0  0  0  0  0  0  0  0
   -5.1962    0.0000    0.0000 F   0  0  0  0  0  0  0  0  0  0  0  0
   -2.5981    0.0000    0.0000 C   0  0  0  0  0  0  0  0  0  0  0  0
   -1.8481   -1.2990    0.0000 F   0  0  0  0  0  0  0  0  0  0  0  0
   -3.3481    1.2990    0.0000 F   0  0  0  0  0  0  0  0  0  0  0  0
   -1.2990    0.7500    0.0000 O   0  0  0  0  0  0  0  0  0  0  0  0
    0.0000    0.0000    0.0000 C   0  0  0  0  0  0  0  0  0  0  0  0
    1.2990    0.7500    0.0000 C   0  0  0  0  0  0  0  0  0  0  0  0
    2.5981   -0.0000    0.0000 C   0  0  0  0  0  0  0  0  0  0  0  0
    3.8971    0.7500    0.0000 Si  0  0  0  0  0  4  0  0  0  0  0  0
    5.1962    1.5000    0.0000 Cl  0  0  0  0  0  0  0  0  0  0  0  0
    4.6471   -0.5490    0.0000 Cl  0  0  0  0  0  0  0  0  0  0  0  0
    3.1471    2.0490    0.0000 Cl  0  0  0  0  0  0  0  0  0  0  0  0
  1  2  1  0
  2  3  1  0
  2  4  1  0
  4  5  1  0
  4  6  1  0
  4  7  1  0
  7  8  1  0
  8  9  1  0
  9 10  1  0
 10 11  1  0
 11 12  1  0
 11 13  1  0
 11 14  1  0
M  END
$$$$

     RDKit          2D

 36 34  0  0  0  0  0  0  0  0999 V2000
    0.0000    0.0000    0.0000 C   0  0  0  0  0  0  0  0  0  0  0  0
    1.2990    0.7500    0.0000 C   0  0  0  0  0  0  0  0  0  0  0  0
    2.5981   -0.0000    0.0000 N   0  0  0  0  0  0  0  0  0  0  0  0
    3.8971    0.7500    0.0000 C   0  0  0  0  0  0  0  0  0  0  0  0
    5.1962   -0.0000    0.0000 C   0  0  0  0  0  0  0  0  0  0  0  0
    2.5981   -1.5000    0.0000 C   0  0  0  0  0  0  0  0  0  0  0  0
    3.8971   -2.2500    0.0000 C   0  0  0  0  0  0  0  0  0  0  0  0
    0.0000    1.7500    0.0000 N   0  0  0  0  0  0  0  0  0  0  0  0
    0.0000    3.2500    0.0000 S   0  0  0  0  0  0  0  0  0  0  0  0
   -1.5000    3.2500    0.0000 O   0  0  0  0  0  0  0  0  0  0  0  0
    0.7912    3.1528    0.0000 O   0  0  0  0  0  0  0  0  0  0  0  0
    0.0000    4.7500    0.0000 C   0  0  0  0  0  0  0  0  0  0  0  0
   -1.5000    4.7500    0.0000 F   0  0  0  0  0  0  0  0  0  0  0  0
    0.0000    6.2500    0.0000 F   0  0  0  0  0  0  0  0  0  0  0  0
    1.5000    4.7500    0.0000 C   0  0  0  0  0  0  0  0  0  0  0  0
    1.5000    6.2500    0.0000 F   0  0  0  0  0  0  0  0  0  0  0  0
    1.6080    3.8709    0.0000 F   0  0  0  0  0  0  0  0  0  0  0  0
    3.0000    4.7500    0.0000 C   0  0  0  0  0  0  0  0  0  0  0  0
    3.0000    3.2500    0.0000 F   0  0  0  0  0  0  0  0  0  0  0  0
    3.0000    6.2500    0.0000 F   0  0  0  0  0  0  0  0  0  0  0  0
    4.5000    4.7500    0.0000 C   0  0  0  0  0  0  0  0  0  0  0  0
    4.5000    6.2500    0.0000 F   0  0  0  0  0  0  0  0  0  0  0  0
    4.5000    3.2500    0.0000 F   0  0  0  0  0  0  0  0  0  0  0  0
    6.0000    4.7500    0.0000 C   0  0  0  0  0  0  0  0  0  0  0  0
    6.0000    6.2500    0.0000 F   0  0  0  0  0  0  0  0  0  0  0  0
    6.0000    3.2500    0.0000 F   0  0  0  0  0  0  0  0  0  0  0  0
    7.5000    4.7500    0.0000 C   0  0  0  0  0  0  0  0  0  0  0  0
    7.5000    3.2500    0.0000 F   0  0  0  0  0  0  0  0  0  0  0  0
    7.5000    6.2500    0.0000 F   0  0  0  0  0  0  0  0  0  0  0  0
    9.0000    4.7500    0.0000 C   0  0  0  0  0  0  0  0  0  0  0  0
    9.0000    6.2500    0.0000 F   0  0  0  0  0  0  0  0  0  0  0  0
    9.0000    3.2500    0.0000 F   0  0  0  0  0  0  0  0  0  0  0  0
   10.5000    4.7500    0.0000 C   0  0  0  0  0  0  0  0  0  0  0  0
   12.0000    4.7500    0.0000 F   0  0  0  0  0  0  0  0  0  0  0  0
   10.5000    3.2500    0.0000 F   0  0  0  0  0  0  0  0  0  0  0  0
   10.5000    6.2500    0.0000 F   0  0  0  0  0  0  0  0  0  0  0  0
  1  2  1  0
  2  3  1  0
  3  4  1  0
  4  5  1  0
  3  6  1  0
  6  7  1  0
  8  9  1  0
  9 10  2  0
  9 11  2  0
  9 12  1  0
 12 13  1  0
 12 14  1  0
 12 15  1  0
 15 16  1  0
 15 17  1  0
 15 18  1  0
 18 19  1  0
 18 20  1  0
 18 21  1  0
 21 22  1  0
 21 23  1  0
 21 24  1  0
 24 25  1  0
 24 26  1  0
 24 27  1  0
 27 28  1  0
 27 29  1  0
 27 30  1  0
 30 31  1  0
 30 32  1  0
 30 33  1  0
 33 34  1  0
 33 35  1  0
 33 36  1  0
M  END
$$$$

     RDKit          2D

 22 22  0  0  0  0  0  0  0  0999 V2000
    2.7760   -1.5000    0.0000 O   0  0  0  0  0  0  0  0  0  0  0  0
    2.7760    0.0000    0.0000 S   0  0  0  0  0  0  0  0  0  0  0  0
    2.7760    1.5000    0.0000 O   0  0  0  0  0  0  0  0  0  0  0  0
    4.2760    0.0000    0.0000 N   0  0  0  0  0  0  0  0  0  0  0  0
    5.0260    1.2990    0.0000 C   0  0  0  0  0  0  0  0  0  0  0  0
    4.2760    2.5981    0.0000 C   0  0  0  0  0  0  0  0  0  0  0  0
    5.0260    3.8971    0.0000 O   0  0  0  0  0  0  0  0  0  0  0  0
    6.5260    1.2990    0.0000 C   0  0  0  0  0  0  0  0  0  0  0  0
    7.2760    2.5981    0.0000 C   0  0  0  0  0  0  0  0  0  0  0  0
    8.0260    3.8971    0.0000 F   0  0  0  0  0  0  0  0  0  0  0  0
    8.5750    1.8481    0.0000 F   0  0  0  0  0  0  0  0  0  0  0  0
    5.9769    3.3481    0.0000 F   0  0  0  0  0  0  0  0  0  0  0  0
    7.2760   -0.0000    0.0000 C   0  0  0  0  0  0  0  0  0  0  0  0
    8.0260   -1.2990    0.0000 F   0  0  0  0  0  0  0  0  0  0  0  0
    8.5750    0.7500    0.0000 F   0  0  0  0  0  0  0  0  0  0  0  0
    5.9769   -0.7500    0.0000 F   0  0  0  0  0  0  0  0  0  0  0  0
    1.2760    0.0000    0.0000 C   0  0  0  0  0  0  0  0  0  0  0  0
    0.3943    1.2135    0.0000 C   0  0  0  0  0  0  0  0  0  0  0  0
   -1.0323    0.7500    0.0000 C   0  0  0  0  0  0  0  0  0  0  0  0
   -1.0323   -0.7500    0.0000 C   0  0  0  0  0  0  0  0  0  0  0  0
   -2.2458   -1.6317    0.0000 Cl  0  0  0  0  0  0  0  0  0  0  0  0
    0.3943   -1.2135    0.0000 S   0  0  0  0  0  0  0  0  0  0  0  0
  1  2  2  0
  2  3  2  0
  2  4  1  0
  4  5  1  0
  5  6  1  6
  6  7  1  0
  5  8  1  0
  8  9  1  0
  9 10  1  0
  9 11  1  0
  9 12  1  0
  8 13  1  0
 13 14  1  0
 13 15  1  0
 13 16  1  0
  2 17  1  0
 17 18  2  0
 18 19  1  0
 19 20  2  0
 20 21  1  0
 20 22  1  0
 22 17  1  0
M  END
$$$$

     RDKit          2D

 20 20  0  0  0  0  0  0  0  0999 V2000
    3.1820    2.1213    0.0000 F   0  0  0  0  0  0  0  0  0  0  0  0
    2.1213    1.0607    0.0000 C   0  0  0  0  0  0  0  0  0  0  0  0
    2.8193    0.5154    0.0000 F   0  0  0  0  0  0  0  0  0  0  0  0
    1.0607    2.1213    0.0000 F   0  0  0  0  0  0  0  0  0  0  0  0
    1.0607    0.0000    0.0000 C   0  0  0  0  0  0  0  0  0  0  0  0
    2.1213   -1.0607    0.0000 C   0  0  0  0  0  0  0  0  0  0  0  0
    3.1820   -2.1213    0.0000 F   0  0  0  0  0  0  0  0  0  0  0  0
    1.0607   -2.1213    0.0000 F   0  0  0  0  0  0  0  0  0  0  0  0
    2.8193   -0.5154    0.0000 F   0  0  0  0  0  0  0  0  0  0  0  0
   -0.0000   -1.0607    0.0000 S   0  0  0  0  0  0  0  0  0  0  0  0
   -1.0607    0.0000    0.0000 C   0  0  0  0  0  0  0  0  0  0  0  0
   -2.1213   -1.0607    0.0000 C   0  0  0  0  0  0  0  0  0  0  0  0
   -3.1820   -2.1213    0.0000 F   0  0  0  0  0  0  0  0  0  0  0  0
   -2.8193   -0.5154    0.0000 F   0  0  0  0  0  0  0  0  0  0  0  0
   -1.0607   -2.1213    0.0000 F   0  0  0  0  0  0  0  0  0  0  0  0
   -2.1213    1.0607    0.0000 C   0  0  0  0  0  0  0  0  0  0  0  0
   -3.1820    2.1213    0.0000 F   0  0  0  0  0  0  0  0  0  0  0  0
   -1.0607    2.1213    0.0000 F   0  0  0  0  0  0  0  0  0  0  0  0
   -2.8193    0.5154    0.0000 F   0  0  0  0  0  0  0  0  0  0  0  0
    0.0000    1.0607    0.0000 S   0  0  0  0  0  0  0  0  0  0  0  0
  1  2  1  0
  2  3  1  0
  2  4  1  0
  2  5  1  0
  5  6  1  0
  6  7  1  0
  6  8  1  0
  6  9  1  0
  5 10  1  0
 10 11  1  0
 11 12  1  0
 12 13  1  0
 12 14  1  0
 12 15  1  0
 11 16  1  0
 16 17  1  0
 16 18  1  0
 16 19  1  0
 11 20  1  0
 20  5  1  0
M  END
$$$$

     RDKit          2D

 12 11  0  0  0  0  0  0  0  0999 V2000
    0.0000    0.0000    0.0000 C   0  0  0  0  0  0  0  0  0  0  0  0
    1.2990    0.7500    0.0000 C   0  0  0  0  0  0  0  0  0  0  0  0
    2.5981   -0.0000    0.0000 O   0  0  0  0  0  0  0  0  0  0  0  0
    3.8971    0.7500    0.0000 C   0  0  0  0  0  0  0  0  0  0  0  0
    5.1962   -0.0000    0.0000 C   0  0  0  0  0  0  0  0  0  0  0  0
    6.4952    0.7500    0.0000 O   0  0  0  0  0  0  0  0  0  0  0  0
    7.7942   -0.0000    0.0000 C   0  0  0  0  0  0  0  0  0  0  0  0
    7.0442   -1.2990    0.0000 F   0  0  0  0  0  0  0  0  0  0  0  0
    8.5442    1.2990    0.0000 F   0  0  0  0  0  0  0  0  0  0  0  0
    9.0933   -0.7500    0.0000 C   0  0  0  0  0  0  0  0  0  0  0  0
    9.0933   -2.2500    0.0000 F   0  0  0  0  0  0  0  0  0  0  0  0
   10.3923   -0.0000    0.0000 F   0  0  0  0  0  0  0  0  0  0  0  0
  1  2  1  0
  2  3  1  0
  3  4  1  0
  4  5  1  0
  5  6  1  0
  6  7  1  0
  7  8  1  0
  7  9  1  0
  7 10  1  0
 10 11  1  0
 10 12  1  0
M  END
$$$$

     RDKit          2D

 37 35  0  0  0  0  0  0  0  0999 V2000
    7.0981    4.0981    0.0000 C   0  0  0  0  0  0  0  0  0  0  0  0
    5.7990    3.3481    0.0000 N   0  0  0  0  0  0  0  0  0  0  0  0
    4.5000    2.5981    0.0000 C   0  0  0  0  0  0  0  0  0  0  0  0
    6.5490    2.0490    0.0000 C   0  0  0  0  0  0  0  0  0  0  0  0
    5.0490    4.6471    0.0000 C   0  0  0  0  0  0  0  0  0  0  0  0
    3.5490    4.6471    0.0000 C   0  0  0  0  0  0  0  0  0  0  0  0
    2.7990    5.9462    0.0000 C   0  0  0  0  0  0  0  0  0  0  0  0
    1.2990    5.9462    0.0000 N   0  0  0  0  0  0  0  0  0  0  0  0
    0.5490    7.2452    0.0000 S   0  0  0  0  0  0  0  0  0  0  0  0
    1.8481    7.9952    0.0000 O   0  0  0  0  0  0  0  0  0  0  0  0
   -0.0876    6.7654    0.0000 O   0  0  0  0  0  0  0  0  0  0  0  0
   -0.2010    8.5442    0.0000 C   0  0  0  0  0  0  0  0  0  0  0  0
    1.0981    9.2942    0.0000 F   0  0  0  0  0  0  0  0  0  0  0  0
   -0.9510    9.8433    0.0000 F   0  0  0  0  0  0  0  0  0  0  0  0
   -1.5000    7.7942    0.0000 C   0  0  0  0  0  0  0  0  0  0  0  0
   -1.1539    6.9789    0.0000 F   0  0  0  0  0  0  0  0  0  0  0  0
   -2.2500    9.0933    0.0000 F   0  0  0  0  0  0  0  0  0  0  0  0
   -2.7990    7.0442    0.0000 C   0  0  0  0  0  0  0  0  0  0  0  0
   -2.0490    5.7452    0.0000 F   0  0  0  0  0  0  0  0  0  0  0  0
   -3.5490    8.3433    0.0000 F   0  0  0  0  0  0  0  0  0  0  0  0
   -4.0981    6.2942    0.0000 C   0  0  0  0  0  0  0  0  0  0  0  0
   -4.8481    7.5933    0.0000 F   0  0  0  0  0  0  0  0  0  0  0  0
   -3.3481    4.9952    0.0000 F   0  0  0  0  0  0  0  0  0  0  0  0
   -5.3971    5.5442    0.0000 C   0  0  0  0  0  0  0  0  0  0  0  0
   -6.1471    6.8433    0.0000 F   0  0  0  0  0  0  0  0  0  0  0  0
   -4.6471    4.2452    0.0000 F   0  0  0  0  0  0  0  0  0  0  0  0
   -6.6962    4.7942    0.0000 C   0  0  0  0  0  0  0  0  0  0  0  0
   -5.9462    3.4952    0.0000 F   0  0  0  0  0  0  0  0  0  0  0  0
   -7.4462    6.0933    0.0000 F   0  0  0  0  0  0  0  0  0  0  0  0
   -7.9952    4.0442    0.0000 C   0  0  0  0  0  0  0  0  0  0  0  0
   -8.7452    5.3433    0.0000 F   0  0  0  0  0  0  0  0  0  0  0  0
   -7.2452    2.7452    0.0000 F   0  0  0  0  0  0  0  0  0  0  0  0
   -9.2942    3.2942    0.0000 C   0  0  0  0  0  0  0  0  0  0  0  0
  -10.5933    2.5442    0.0000 F   0  0  0  0  0  0  0  0  0  0  0  0
   -8.5442    1.9952    0.0000 F   0  0  0  0  0  0  0  0  0  0  0  0
  -10.0442    4.5933    0.0000 F   0  0  0  0  0  0  0  0  0  0  0  0
    0.0000   10.8433    0.0000 O   0  0  0  0  0  0  0  0  0  0  0  0
  1  2  1  0
  2  3  1  0
  2  4  1  0
  2  5  1  0
  5  6  1  0
  6  7  1  0
  7  8  1  0
  8  9  1  0
  9 10  2  0
  9 11  2  0
  9 12  1  0
 12 13  1  0
 12 14  1  0
 12 15  1  0
 15 16  1  0
 15 17  1  0
 15 18  1  0
 18 19  1  0
 18 20  1  0
 18 21  1  0
 21 22  1  0
 21 23  1  0
 21 24  1  0
 24 25  1  0
 24 26  1  0
 24 27  1  0
 27 28  1  0
 27 29  1  0
 27 30  1  0
 30 31  1  0
 30 32  1  0
 30 33  1  0
 33 34  1  0
 33 35  1  0
 33 36  1  0
M  CHG  2   2   1  37  -1
M  END
$$$$

     RDKit          2D

 27 27  0  0  0  0  0  0  0  0999 V2000
    3.7500    1.2990    0.0000 O   0  0  0  0  0  0  0  0  0  0  0  0
    3.0000    0.0000    0.0000 N   0  0  0  0  0  0  0  0  0  0  0  0
    3.7500   -1.2990    0.0000 O   0  0  0  0  0  0  0  0  0  0  0  0
    1.5000    0.0000    0.0000 C   0  0  0  0  0  0  0  0  0  0  0  0
    0.7500   -1.2990    0.0000 C   0  0  0  0  0  0  0  0  0  0  0  0
   -0.7500   -1.2990    0.0000 C   0  0  0  0  0  0  0  0  0  0  0  0
   -1.5000   -2.5981    0.0000 C   0  0  0  0  0  0  0  0  0  0  0  0
   -2.2500   -3.8971    0.0000 F   0  0  0  0  0  0  0  0  0  0  0  0
   -2.7990   -1.8481    0.0000 F   0  0  0  0  0  0  0  0  0  0  0  0
   -0.2010   -3.3481    0.0000 F   0  0  0  0  0  0  0  0  0  0  0  0
   -1.5000    0.0000    0.0000 C   0  0  0  0  0  0  0  0  0  0  0  0
   -0.7500    1.2990    0.0000 C   0  0  0  0  0  0  0  0  0  0  0  0
   -1.5000    2.5981    0.0000 N   0  0  0  0  0  0  0  0  0  0  0  0
   -0.7500    3.8971    0.0000 O   0  0  0  0  0  0  0  0  0  0  0  0
   -3.0000    2.5981    0.0000 O   0  0  0  0  0  0  0  0  0  0  0  0
    0.7500    1.2990    0.0000 C   0  0  0  0  0  0  0  0  0  0  0  0
    1.5000    2.5981    0.0000 N   0  0  0  0  0  0  0  0  0  0  0  0
    3.0000    2.5981    0.0000 N   0  0  0  0  0  0  0  0  0  0  0  0
    3.7500    3.8971    0.0000 C   0  0  0  0  0  0  0  0  0  0  0  0
    5.2500    3.8971    0.0000 C   0  0  0  0  0  0  0  0  0  0  0  0
    6.7500    3.8971    0.0000 F   0  0  0  0  0  0  0  0  0  0  0  0
    5.2500    5.3971    0.0000 F   0  0  0  0  0  0  0  0  0  0  0  0
    5.2500    2.3971    0.0000 F   0  0  0  0  0  0  0  0  0  0  0  0
    3.0000    5.1962    0.0000 C   0  0  0  0  0  0  0  0  0  0  0  0
    2.2500    6.4952    0.0000 F   0  0  0  0  0  0  0  0  0  0  0  0
    4.2990    5.9462    0.0000 F   0  0  0  0  0  0  0  0  0  0  0  0
    1.7010    4.4462    0.0000 F   0  0  0  0  0  0  0  0  0  0  0  0
  1  2  2  0
  2  3  1  0
  2  4  1  0
  4  5  2  0
  5  6  1  0
  6  7  1  0
  7  8  1  0
  7  9  1  0
  7 10  1  0
  6 11  2  0
 11 12  1  0
 12 13  1  0
 13 14  2  0
 13 15  1  0
 12 16  2  0
 16 17  1  0
 17 18  1  0
 18 19  2  0
 19 20  1  0
 20 21  1  0
 20 22  1  0
 20 23  1  0
 19 24  1  0
 24 25  1  0
 24 26  1  0
 24 27  1  0
 16  4  1  0
M  CHG  4   2   1   3  -1  13   1  15  -1
M  END
$$$$

     RDKit          2D

 19 19  0  0  0  0  0  0  0  0999 V2000
    5.7760    0.0000    0.0000 F   0  0  0  0  0  0  0  0  0  0  0  0
    4.2760    0.0000    0.0000 C   0  0  0  0  0  0  0  0  0  0  0  0
    4.2760    1.5000    0.0000 F   0  0  0  0  0  0  0  0  0  0  0  0
    4.2760   -1.5000    0.0000 F   0  0  0  0  0  0  0  0  0  0  0  0
    2.7760    0.0000    0.0000 C   0  0  0  0  0  0  0  0  0  0  0  0
    2.7760   -1.5000    0.0000 F   0  0  0  0  0  0  0  0  0  0  0  0
    2.7760    1.5000    0.0000 F   0  0  0  0  0  0  0  0  0  0  0  0
    1.2760    0.0000    0.0000 C   0  0  0  0  0  0  0  0  0  0  0  0
    0.3943    1.2135    0.0000 N   0  0  0  0  0  0  0  0  0  0  0  0
   -1.0323    0.7500    0.0000 N   0  0  0  0  0  0  0  0  0  0  0  0
   -1.0323   -0.7500    0.0000 C   0  0  0  0  0  0  0  0  0  0  0  0
   -2.2458   -1.6317    0.0000 C   0  0  0  0  0  0  0  0  0  0  0  0
   -3.1275   -0.4182    0.0000 F   0  0  0  0  0  0  0  0  0  0  0  0
   -1.3641   -2.8452    0.0000 F   0  0  0  0  0  0  0  0  0  0  0  0
   -3.4593   -2.5134    0.0000 C   0  0  0  0  0  0  0  0  0  0  0  0
   -4.6729   -3.3950    0.0000 F   0  0  0  0  0  0  0  0  0  0  0  0
   -2.5777   -3.7269    0.0000 F   0  0  0  0  0  0  0  0  0  0  0  0
   -4.3410   -1.2998    0.0000 F   0  0  0  0  0  0  0  0  0  0  0  0
    0.3943   -1.2135    0.0000 O   0  0  0  0  0  0  0  0  0  0  0  0
  1  2  1  0
  2  3  1  0
  2  4  1  0
  2  5  1  0
  5  6  1  0
  5  7  1  0
  5  8  1  0
  8  9  2  0
  9 10  1  0
 10 11  2  0
 11 12  1  0
 12 13  1  0
 12 14  1  0
 12 15  1  0
 15 16  1  0
 15 17  1  0
 15 18  1  0
 11 19  1  0
 19  8  1  0
M  END
$$$$

     RDKit          2D

 18 16  0  0  0  0  0  0  0  0999 V2000
   -1.5000    1.5000    0.0000 O   0  0  0  0  0  0  0  0  0  0  0  0
   -0.0000    1.5000    0.0000 S   0  0  0  0  0  0  0  0  0  0  0  0
    0.7735    1.6929    0.0000 O   0  0  0  0  0  0  0  0  0  0  0  0
   -0.0000    3.0000    0.0000 O   0  0  0  0  0  0  0  0  0  0  0  0
    0.0000    0.0000    0.0000 C   0  0  0  0  0  0  0  0  0  0  0  0
   -1.5000   -0.0000    0.0000 F   0  0  0  0  0  0  0  0  0  0  0  0
   -0.1828   -1.4888    0.0000 F   0  0  0  0  0  0  0  0  0  0  0  0
    1.5000    0.0000    0.0000 C   0  0  0  0  0  0  0  0  0  0  0  0
    3.0000    0.0000    0.0000 F   0  0  0  0  0  0  0  0  0  0  0  0
    1.5000    1.5000    0.0000 C   0  0  0  0  0  0  0  0  0  0  0  0
    1.5000    3.0000    0.0000 F   0  0  0  0  0  0  0  0  0  0  0  0
    3.0000    1.5000    0.0000 F   0  0  0  0  0  0  0  0  0  0  0  0
    0.0446    1.8630    0.0000 F   0  0  0  0  0  0  0  0  0  0  0  0
    1.5000   -1.5000    0.0000 C   0  0  0  0  0  0  0  0  0  0  0  0
    1.5000   -3.0000    0.0000 F   0  0  0  0  0  0  0  0  0  0  0  0
    3.0000   -1.5000    0.0000 F   0  0  0  0  0  0  0  0  0  0  0  0
    0.0112   -1.6828    0.0000 F   0  0  0  0  0  0  0  0  0  0  0  0
    4.0000    0.0000    0.0000 K   0  0  0  0  0 15  0  0  0  0  0  0
  1  2  2  0
  2  3  2  0
  2  4  1  0
  2  5  1  0
  5  6  1  0
  5  7  1  0
  5  8  1  0
  8  9  1  0
  8 10  1  0
 10 11  1  0
 10 12  1  0
 10 13  1  0
  8 14  1  0
 14 15  1  0
 14 16  1  0
 14 17  1  0
M  CHG  2   4  -1  18   1
M  END
$$$$

     RDKit          2D

 84 82  0  0  0  0  0  0  0  0999 V2000
   -1.8481   -1.2990    0.0000 O   0  0  0  0  0  0  0  0  0  0  0  0
   -2.5981    0.0000    0.0000 P   0  0  0  0  0  0  0  0  0  0  0  0
   -3.3481    1.2990    0.0000 O   0  0  0  0  0  0  0  0  0  0  0  0
   -1.2990    0.7500    0.0000 O   0  0  0  0  0  0  0  0  0  0  0  0
    0.0000    0.0000    0.0000 C   0  0  0  0  0  0  0  0  0  0  0  0
    1.2990    0.7500    0.0000 C   0  0  0  0  0  0  0  0  0  0  0  0
    2.5981   -0.0000    0.0000 C   0  0  0  0  0  0  0  0  0  0  0  0
    3.3481    1.2990    0.0000 F   0  0  0  0  0  0  0  0  0  0  0  0
    1.8481   -1.2990    0.0000 F   0  0  0  0  0  0  0  0  0  0  0  0
    3.8971   -0.7500    0.0000 C   0  0  0  0  0  0  0  0  0  0  0  0
    3.1471   -2.0490    0.0000 F   0  0  0  0  0  0  0  0  0  0  0  0
    4.6471    0.5490    0.0000 F   0  0  0  0  0  0  0  0  0  0  0  0
    5.1962   -1.5000    0.0000 C   0  0  0  0  0  0  0  0  0  0  0  0
    5.9462   -0.2010    0.0000 F   0  0  0  0  0  0  0  0  0  0  0  0
    4.4462   -2.7990    0.0000 F   0  0  0  0  0  0  0  0  0  0  0  0
    6.4952   -2.2500    0.0000 C   0  0  0  0  0  0  0  0  0  0  0  0
    5.7452   -3.5490    0.0000 F   0  0  0  0  0  0  0  0  0  0  0  0
    7.2452   -0.9510    0.0000 F   0  0  0  0  0  0  0  0  0  0  0  0
    7.7942   -3.0000    0.0000 C   0  0  0  0  0  0  0  0  0  0  0  0
    8.5442   -1.7010    0.0000 F   0  0  0  0  0  0  0  0  0  0  0  0
    7.0442   -4.2990    0.0000 F   0  0  0  0  0  0  0  0  0  0  0  0
    9.0933   -3.7500    0.0000 C   0  0  0  0  0  0  0  0  0  0  0  0
    8.3433   -5.0490    0.0000 F   0  0  0  0  0  0  0  0  0  0  0  0
    9.8433   -2.4510    0.0000 F   0  0  0  0  0  0  0  0  0  0  0  0
   10.3923   -4.5000    0.0000 C   0  0  0  0  0  0  0  0  0  0  0  0
   11.1423   -3.2010    0.0000 F   0  0  0  0  0  0  0  0  0  0  0  0
    9.6423   -5.7990    0.0000 F   0  0  0  0  0  0  0  0  0  0  0  0
   11.6913   -5.2500    0.0000 C   0  0  0  0  0  0  0  0  0  0  0  0
   10.9413   -6.5490    0.0000 F   0  0  0  0  0  0  0  0  0  0  0  0
   12.4413   -3.9510    0.0000 F   0  0  0  0  0  0  0  0  0  0  0  0
   12.9904   -6.0000    0.0000 C   0  0  0  0  0  0  0  0  0  0  0  0
   13.7404   -4.7010    0.0000 F   0  0  0  0  0  0  0  0  0  0  0  0
   12.2404   -7.2990    0.0000 F   0  0  0  0  0  0  0  0  0  0  0  0
   14.2894   -6.7500    0.0000 C   0  0  0  0  0  0  0  0  0  0  0  0
   13.5394   -8.0490    0.0000 F   0  0  0  0  0  0  0  0  0  0  0  0
   15.0394   -5.4510    0.0000 F   0  0  0  0  0  0  0  0  0  0  0  0
   15.5885   -7.5000    0.0000 C   0  0  0  0  0  0  0  0  0  0  0  0
   16.3385   -6.2010    0.0000 F   0  0  0  0  0  0  0  0  0  0  0  0
   14.8385   -8.7990    0.0000 F   0  0  0  0  0  0  0  0  0  0  0  0
   16.8875   -8.2500    0.0000 C   0  0  0  0  0  0  0  0  0  0  0  0
   18.1865   -9.0000    0.0000 F   0  0  0  0  0  0  0  0  0  0  0  0
   16.1375   -9.5490    0.0000 F   0  0  0  0  0  0  0  0  0  0  0  0
   17.6375   -6.9510    0.0000 F   0  0  0  0  0  0  0  0  0  0  0  0
   -3.8971   -0.7500    0.0000 O   0  0  0  0  0  0  0  0  0  0  0  0
   -3.8971   -2.2500    0.0000 C   0  0  0  0  0  0  0  0  0  0  0  0
   -5.1962   -3.0000    0.0000 C   0  0  0  0  0  0  0  0  0  0  0  0
   -5.1962   -4.5000    0.0000 C   0  0  0  0  0  0  0  0  0  0  0  0
   -6.6962   -4.5000    0.0000 F   0  0  0  0  0  0  0  0  0  0  0  0
   -3.6962   -4.5000    0.0000 F   0  0  0  0  0  0  0  0  0  0  0  0
   -5.1962   -6.0000    0.0000 C   0  0  0  0  0  0  0  0  0  0  0  0
   -3.6962   -6.0000    0.0000 F   0  0  0  0  0  0  0  0  0  0  0  0
   -6.6962   -6.0000    0.0000 F   0  0  0  0  0  0  0  0  0  0  0  0
   -5.1962   -7.5000    0.0000 C   0  0  0  0  0  0  0  0  0  0  0  0
   -6.6962   -7.5000    0.0000 F   0  0  0  0  0  0  0  0  0  0  0  0
   -3.6962   -7.5000    0.0000 F   0  0  0  0  0  0  0  0  0  0  0  0
   -5.1962   -9.0000    0.0000 C   0  0  0  0  0  0  0  0  0  0  0  0
   -3.6962   -9.0000    0.0000 F   0  0  0  0  0  0  0  0  0  0  0  0
   -6.6962   -9.0000    0.0000 F   0  0  0  0  0  0  0  0  0  0  0  0
   -5.1962  -10.5000    0.0000 C   0  0  0  0  0  0  0  0  0  0  0  0
   -6.6962  -10.5000    0.0000 F   0  0  0  0  0  0  0  0  0  0  0  0
   -3.6962  -10.5000    0.0000 F   0  0  0  0  0  0  0  0  0  0  0  0
   -5.1962  -12.0000    0.0000 C   0  0  0  0  0  0  0  0  0  0  0  0
   -3.6962  -12.0000    0.0000 F   0  0  0  0  0  0  0  0  0  0  0  0
   -6.6962  -12.0000    0.0000 F   0  0  0  0  0  0  0  0  0  0  0  0
   -5.1962  -13.5000    0.0000 C   0  0  0  0  0  0  0  0  0  0  0  0
   -6.6962  -13.5000    0.0000 F   0  0  0  0  0  0  0  0  0  0  0  0
   -3.6962  -13.5000    0.0000 F   0  0  0  0  0  0  0  0  0  0  0  0
   -5.1962  -15.0000    0.0000 C   0  0  0  0  0  0  0  0  0  0  0  0
   -3.6962  -15.0000    0.0000 F   0  0  0  0  0  0  0  0  0  0  0  0
   -6.6962  -15.0000    0.0000 F   0  0  0  0  0  0  0  0  0  0  0  0
   -5.1962  -16.5000    0.0000 C   0  0  0  0  0  0  0  0  0  0  0  0
   -6.6962  -16.5000    0.0000 F   0  0  0  0  0  0  0  0  0  0  0  0
   -3.6962  -16.5000    0.0000 F   0  0  0  0  0  0  0  0  0  0  0  0
   -5.1962  -18.0000    0.0000 C   0  0  0  0  0  0  0  0  0  0  0  0
   -3.6962  -18.0000    0.0000 F   0  0  0  0  0  0  0  0  0  0  0  0
   -6.6962  -18.0000    0.0000 F   0  0  0  0  0  0  0  0  0  0  0  0
   -5.1962  -19.5000    0.0000 C   0  0  0  0  0  0  0  0  0  0  0  0
   -6.6962  -19.5000    0.0000 F   0  0  0  0  0  0  0  0  0  0  0  0
   -3.6962  -19.5000    0.0000 F   0  0  0  0  0  0  0  0  0  0  0  0
   -5.1962  -21.0000    0.0000 C   0  0  0  0  0  0  0  0  0  0  0  0
   -5.1962  -22.5000    0.0000 F   0  0  0  0  0  0  0  0  0  0  0  0
   -3.6962  -21.0000    0.0000 F   0  0  0  0  0  0  0  0  0  0  0  0
   -6.6962  -21.0000    0.0000 F   0  0  0  0  0  0  0  0  0  0  0  0
    0.0000    2.2990    0.0000 N   0  0  0  0  0  0  0  0  0  0  0  0
  1  2  2  0
  2  3  1  0
  2  4  1  0
  4  5  1  0
  5  6  1  0
  6  7  1  0
  7  8  1  0
  7  9  1  0
  7 10  1  0
 10 11  1  0
 10 12  1  0
 10 13  1  0
 13 14  1  0
 13 15  1  0
 13 16  1  0
 16 17  1  0
 16 18  1  0
 16 19  1  0
 19 20  1  0
 19 21  1  0
 19 22  1  0
 22 23  1  0
 22 24  1  0
 22 25  1  0
 25 26  1  0
 25 27  1  0
 25 28  1  0
 28 29  1  0
 28 30  1  0
 28 31  1  0
 31 32  1  0
 31 33  1  0
 31 34  1  0
 34 35  1  0
 34 36  1  0
 34 37  1  0
 37 38  1  0
 37 39  1  0
 37 40  1  0
 40 41  1  0
 40 42  1  0
 40 43  1  0
  2 44  1  0
 44 45  1  0
 45 46  1  0
 46 47  1  0
 47 48  1  0
 47 49  1  0
 47 50  1  0
 50 51  1  0
 50 52  1  0
 50 53  1  0
 53 54  1  0
 53 55  1  0
 53 56  1  0
 56 57  1  0
 56 58  1  0
 56 59  1  0
 59 60  1  0
 59 61  1  0
 59 62  1  0
 62 63  1  0
 62 64  1  0
 62 65  1  0
 65 66  1  0
 65 67  1  0
 65 68  1  0
 68 69  1  0
 68 70  1  0
 68 71  1  0
 71 72  1  0
 71 73  1  0
 71 74  1  0
 74 75  1  0
 74 76  1  0
 74 77  1  0
 77 78  1  0
 77 79  1  0
 77 80  1  0
 80 81  1  0
 80 82  1  0
 80 83  1  0
M  CHG  2   3  -1  84   1
M  END
$$$$

     RDKit          2D

 22 21  0  0  0  0  0  0  0  0999 V2000
   -0.5078    2.1528    0.0000 O   0  0  0  0  0  0  0  0  0  0  0  0
   -1.2990    2.2500    0.0000 S   0  0  0  0  0  0  0  0  0  0  0  0
   -2.7990    2.2500    0.0000 O   0  0  0  0  0  0  0  0  0  0  0  0
   -1.2990    0.7500    0.0000 N   0  0  0  0  0  0  0  0  0  0  0  0
    0.0000   -0.0000    0.0000 C   0  0  0  0  0  0  0  0  0  0  0  0
    1.2990    0.7500    0.0000 C   0  0  0  0  0  0  0  0  0  0  0  0
    2.5981   -0.0000    0.0000 O   0  0  0  0  0  0  0  0  0  0  0  0
   -2.5981   -0.0000    0.0000 C   0  0  0  0  0  0  0  0  0  0  0  0
   -3.8971    0.7500    0.0000 C   0  0  0  0  0  0  0  0  0  0  0  0
   -5.1962   -0.0000    0.0000 O   0  0  0  0  0  0  0  0  0  0  0  0
   -1.2990    3.7500    0.0000 C   0  0  0  0  0  0  0  0  0  0  0  0
   -2.7990    3.7500    0.0000 F   0  0  0  0  0  0  0  0  0  0  0  0
   -1.2990    5.2500    0.0000 F   0  0  0  0  0  0  0  0  0  0  0  0
    0.2010    3.7500    0.0000 C   0  0  0  0  0  0  0  0  0  0  0  0
    0.3089    2.8709    0.0000 F   0  0  0  0  0  0  0  0  0  0  0  0
    0.2010    5.2500    0.0000 F   0  0  0  0  0  0  0  0  0  0  0  0
    1.7010    3.7500    0.0000 C   0  0  0  0  0  0  0  0  0  0  0  0
    1.7010    2.2500    0.0000 F   0  0  0  0  0  0  0  0  0  0  0  0
    1.7010    5.2500    0.0000 F   0  0  0  0  0  0  0  0  0  0  0  0
    3.2010    3.7500    0.0000 C   0  0  0  0  0  0  0  0  0  0  0  0
    3.9510    5.0490    0.0000 F   0  0  0  0  0  0  0  0  0  0  0  0
    3.9510    2.4510    0.0000 F   0  0  0  0  0  0  0  0  0  0  0  0
  1  2  2  0
  2  3  2  0
  2  4  1  0
  4  5  1  0
  5  6  1  0
  6  7  1  0
  4  8  1  0
  8  9  1  0
  9 10  1  0
  2 11  1  0
 11 12  1  0
 11 13  1  0
 11 14  1  0
 14 15  1  0
 14 16  1  0
 14 17  1  0
 17 18  1  0
 17 19  1  0
 17 20  1  0
 20 21  1  0
 20 22  1  0
M  END
$$$$

     RDKit          2D

 41 40  0  0  0  0  0  0  0  0999 V2000
   -3.3481    1.2990    0.0000 O   0  0  0  0  0  0  0  0  0  0  0  0
   -2.5981    0.0000    0.0000 P   0  0  0  0  0  0  0  0  0  0  0  0
   -1.8481   -1.2990    0.0000 O   0  0  0  0  0  0  0  0  0  0  0  0
   -3.8971   -0.7500    0.0000 O   0  0  0  0  0  0  0  0  0  0  0  0
   -1.2990    0.7500    0.0000 O   0  0  0  0  0  0  0  0  0  0  0  0
    0.0000    0.0000    0.0000 C   0  0  0  0  0  0  0  0  0  0  0  0
    1.2990    0.7500    0.0000 C   0  0  0  0  0  0  0  0  0  0  0  0
    2.5981   -0.0000    0.0000 C   0  0  0  0  0  0  0  0  0  0  0  0
    3.3481    1.2990    0.0000 F   0  0  0  0  0  0  0  0  0  0  0  0
    1.8481   -1.2990    0.0000 F   0  0  0  0  0  0  0  0  0  0  0  0
    3.8971   -0.7500    0.0000 C   0  0  0  0  0  0  0  0  0  0  0  0
    3.1471   -2.0490    0.0000 F   0  0  0  0  0  0  0  0  0  0  0  0
    4.6471    0.5490    0.0000 F   0  0  0  0  0  0  0  0  0  0  0  0
    5.1962   -1.5000    0.0000 C   0  0  0  0  0  0  0  0  0  0  0  0
    5.9462   -0.2010    0.0000 F   0  0  0  0  0  0  0  0  0  0  0  0
    4.4462   -2.7990    0.0000 F   0  0  0  0  0  0  0  0  0  0  0  0
    6.4952   -2.2500    0.0000 C   0  0  0  0  0  0  0  0  0  0  0  0
    5.7452   -3.5490    0.0000 F   0  0  0  0  0  0  0  0  0  0  0  0
    7.2452   -0.9510    0.0000 F   0  0  0  0  0  0  0  0  0  0  0  0
    7.7942   -3.0000    0.0000 C   0  0  0  0  0  0  0  0  0  0  0  0
    7.0442   -4.2990    0.0000 F   0  0  0  0  0  0  0  0  0  0  0  0
    8.5442   -1.7010    0.0000 F   0  0  0  0  0  0  0  0  0  0  0  0
    9.0933   -3.7500    0.0000 C   0  0  0  0  0  0  0  0  0  0  0  0
    9.8433   -2.4510    0.0000 F   0  0  0  0  0  0  0  0  0  0  0  0
    8.3433   -5.0490    0.0000 F   0  0  0  0  0  0  0  0  0  0  0  0
   10.3923   -4.5000    0.0000 C   0  0  0  0  0  0  0  0  0  0  0  0
    9.6423   -5.7990    0.0000 F   0  0  0  0  0  0  0  0  0  0  0  0
   11.1423   -3.2010    0.0000 F   0  0  0  0  0  0  0  0  0  0  0  0
   11.6913   -5.2500    0.0000 C   0  0  0  0  0  0  0  0  0  0  0  0
   12.0374   -4.4347    0.0000 F   0  0  0  0  0  0  0  0  0  0  0  0
   10.9413   -6.5490    0.0000 F   0  0  0  0  0  0  0  0  0  0  0  0
   12.9904   -6.0000    0.0000 C   0  0  0  0  0  0  0  0  0  0  0  0
   12.2404   -7.2990    0.0000 F   0  0  0  0  0  0  0  0  0  0  0  0
   14.2894   -6.7500    0.0000 C   0  0  0  0  0  0  0  0  0  0  0  0
   15.5885   -7.5000    0.0000 F   0  0  0  0  0  0  0  0  0  0  0  0
   13.5394   -8.0490    0.0000 F   0  0  0  0  0  0  0  0  0  0  0  0
   14.8225   -6.0426    0.0000 F   0  0  0  0  0  0  0  0  0  0  0  0
   13.7404   -4.7010    0.0000 C   0  0  0  0  0  0  0  0  0  0  0  0
   14.4904   -3.4019    0.0000 F   0  0  0  0  0  0  0  0  0  0  0  0
   14.5557   -5.0470    0.0000 F   0  0  0  0  0  0  0  0  0  0  0  0
   13.0330   -4.1679    0.0000 F   0  0  0  0  0  0  0  0  0  0  0  0
  1  2  2  0
  2  3  1  0
  2  4  1  0
  2  5  1  0
  5  6  1  0
  6  7  1  0
  7  8  1  0
  8  9  1  0
  8 10  1  0
  8 11  1  0
 11 12  1  0
 11 13  1  0
 11 14  1  0
 14 15  1  0
 14 16  1  0
 14 17  1  0
 17 18  1  0
 17 19  1  0
 17 20  1  0
 20 21  1  0
 20 22  1  0
 20 23  1  0
 23 24  1  0
 23 25  1  0
 23 26  1  0
 26 27  1  0
 26 28  1  0
 26 29  1  0
 29 30  1  0
 29 31  1  0
 29 32  1  0
 32 33  1  0
 32 34  1  0
 34 35  1  0
 34 36  1  0
 34 37  1  0
 32 38  1  0
 38 39  1  0
 38 40  1  0
 38 41  1  0
M  END
$$$$

     RDKit          2D

 21 21  0  0  0  0  0  0  0  0999 V2000
    3.5054    2.0074    0.0000 F   0  0  0  0  0  0  0  0  0  0  0  0
    2.3907    1.0037    0.0000 C   0  0  0  0  0  0  0  0  0  0  0  0
    1.5304    2.2324    0.0000 F   0  0  0  0  0  0  0  0  0  0  0  0
    2.9923    0.4807    0.0000 F   0  0  0  0  0  0  0  0  0  0  0  0
    1.2760    0.0000    0.0000 C   0  0  0  0  0  0  0  0  0  0  0  0
    2.3907   -1.0037    0.0000 C   0  0  0  0  0  0  0  0  0  0  0  0
    3.5054   -2.0074    0.0000 F   0  0  0  0  0  0  0  0  0  0  0  0
    2.9923   -0.4807    0.0000 F   0  0  0  0  0  0  0  0  0  0  0  0
    1.5304   -2.2324    0.0000 F   0  0  0  0  0  0  0  0  0  0  0  0
    0.3943    1.2135    0.0000 C   0  0  0  0  0  0  0  0  0  0  0  0
   -0.2158    2.5838    0.0000 F   0  0  0  0  0  0  0  0  0  0  0  0
    1.5922    2.1163    0.0000 F   0  0  0  0  0  0  0  0  0  0  0  0
   -1.0323    0.7500    0.0000 C   0  0  0  0  0  0  0  0  0  0  0  0
   -2.5241    0.5932    0.0000 F   0  0  0  0  0  0  0  0  0  0  0  0
   -1.3442    2.2172    0.0000 F   0  0  0  0  0  0  0  0  0  0  0  0
   -1.0323   -0.7500    0.0000 C   0  0  0  0  0  0  0  0  0  0  0  0
   -1.3442   -2.2172    0.0000 F   0  0  0  0  0  0  0  0  0  0  0  0
   -2.5241   -0.5932    0.0000 F   0  0  0  0  0  0  0  0  0  0  0  0
    0.3943   -1.2135    0.0000 C   0  0  0  0  0  0  0  0  0  0  0  0
    1.5922   -2.1163    0.0000 F   0  0  0  0  0  0  0  0  0  0  0  0
   -0.2158   -2.5838    0.0000 F   0  0  0  0  0  0  0  0  0  0  0  0
  1  2  1  0
  2  3  1  0
  2  4  1  0
  2  5  1  0
  5  6  1  0
  6  7  1  0
  6  8  1  0
  6  9  1  0
  5 10  1  0
 10 11  1  0
 10 12  1  0
 10 13  1  0
 13 14  1  0
 13 15  1  0
 13 16  1  0
 16 17  1  0
 16 18  1  0
 16 19  1  0
 19 20  1  0
 19 21  1  0
 19  5  1  0
M  END
$$$$

     RDKit          2D

 14 13  0  0  0  0  0  0  0  0999 V2000
   -3.8971   -0.7500    0.0000 F   0  0  0  0  0  0  0  0  0  0  0  0
   -2.5981    0.0000    0.0000 C   0  0  0  0  0  0  0  0  0  0  0  0
   -3.3481    1.2990    0.0000 F   0  0  0  0  0  0  0  0  0  0  0  0
   -1.8481   -1.2990    0.0000 F   0  0  0  0  0  0  0  0  0  0  0  0
   -1.2990    0.7500    0.0000 C   0  0  0  0  0  0  0  0  0  0  0  0
    0.0000    0.0000    0.0000 C   0  0  0  0  0  0  0  0  0  0  0  0
    1.2990    0.7500    0.0000 C   0  0  0  0  0  0  0  0  0  0  0  0
    2.5981   -0.0000    0.0000 C   0  0  0  0  0  0  0  0  0  0  0  0
    3.8971    0.7500    0.0000 Cl  0  0  0  0  0  0  0  0  0  0  0  0
    2.5981   -1.5000    0.0000 Cl  0  0  0  0  0  0  0  0  0  0  0  0
   -1.2990    2.2500    0.0000 C   0  0  0  0  0  0  0  0  0  0  0  0
   -1.2990    3.7500    0.0000 F   0  0  0  0  0  0  0  0  0  0  0  0
   -2.7990    2.2500    0.0000 F   0  0  0  0  0  0  0  0  0  0  0  0
    0.2010    2.2500    0.0000 F   0  0  0  0  0  0  0  0  0  0  0  0
  1  2  1  0
  2  3  1  0
  2  4  1  0
  2  5  1  0
  5  6  2  0
  6  7  1  0
  7  8  2  0
  8  9  1  0
  8 10  1  0
  5 11  1  0
 11 12  1  0
 11 13  1  0
 11 14  1  0
M  END
$$$$

     RDKit          2D

 17 17  0  0  0  0  0  0  0  0999 V2000
    6.7500   -1.2990    0.0000 F   0  0  0  0  0  0  0  0  0  0  0  0
    5.2500   -1.2990    0.0000 C   0  0  0  0  0  0  0  0  0  0  0  0
    5.2500   -2.7990    0.0000 F   0  0  0  0  0  0  0  0  0  0  0  0
    5.2500    0.2010    0.0000 F   0  0  0  0  0  0  0  0  0  0  0  0
    3.7500   -1.2990    0.0000 C   0  0  0  0  0  0  0  0  0  0  0  0
    3.0000    0.0000    0.0000 C   0  0  0  0  0  0  0  0  0  0  0  0
    1.5000    0.0000    0.0000 C   0  0  0  0  0  0  0  0  0  0  0  0
    0.7500   -1.2990    0.0000 C   0  0  0  0  0  0  0  0  0  0  0  0
   -0.7500   -1.2990    0.0000 C   0  0  0  0  0  0  0  0  0  0  0  0
   -1.5000    0.0000    0.0000 C   0  0  0  0  0  0  0  0  0  0  0  0
   -3.0000    0.0000    0.0000 Cl  0  0  0  0  0  0  0  0  0  0  0  0
   -0.7500    1.2990    0.0000 C   0  0  0  0  0  0  0  0  0  0  0  0
    0.7500    1.2990    0.0000 C   0  0  0  0  0  0  0  0  0  0  0  0
    3.0000   -2.5981    0.0000 C   0  0  0  0  0  0  0  0  0  0  0  0
    2.2500   -3.8971    0.0000 F   0  0  0  0  0  0  0  0  0  0  0  0
    4.2990   -3.3481    0.0000 F   0  0  0  0  0  0  0  0  0  0  0  0
    1.7010   -1.8481    0.0000 F   0  0  0  0  0  0  0  0  0  0  0  0
  1  2  1  0
  2  3  1  0
  2  4  1  0
  2  5  1  0
  5  6  2  0
  6  7  1  0
  7  8  2  0
  8  9  1  0
  9 10  2  0
 10 11  1  0
 10 12  1  0
 12 13  2  0
  5 14  1  0
 14 15  1  0
 14 16  1  0
 14 17  1  0
 13  7  1  0
M  END
$$$$

     RDKit          2D

 40 39  0  0  0  0  0  0  0  0999 V2000
   -1.5000    0.0000    0.0000 F   0  0  0  0  0  0  0  0  0  0  0  0
    0.0000    0.0000    0.0000 C   0  0  0  0  0  0  0  0  0  0  0  0
    0.0000    1.5000    0.0000 F   0  0  0  0  0  0  0  0  0  0  0  0
   -0.0000   -1.5000    0.0000 F   0  0  0  0  0  0  0  0  0  0  0  0
    1.5000    0.0000    0.0000 C   0  0  0  0  0  0  0  0  0  0  0  0
    1.5000    1.5000    0.0000 F   0  0  0  0  0  0  0  0  0  0  0  0
    1.5000   -1.5000    0.0000 F   0  0  0  0  0  0  0  0  0  0  0  0
    3.0000    0.0000    0.0000 C   0  0  0  0  0  0  0  0  0  0  0  0
    3.0000    1.5000    0.0000 F   0  0  0  0  0  0  0  0  0  0  0  0
    3.0000   -1.5000    0.0000 F   0  0  0  0  0  0  0  0  0  0  0  0
    4.5000    0.0000    0.0000 C   0  0  0  0  0  0  0  0  0  0  0  0
    4.5000   -1.5000    0.0000 F   0  0  0  0  0  0  0  0  0  0  0  0
    4.5000    1.5000    0.0000 F   0  0  0  0  0  0  0  0  0  0  0  0
    6.0000    0.0000    0.0000 N   0  0  0  0  0  0  0  0  0  0  0  0
    6.7500    1.2990    0.0000 C   0  0  0  0  0  0  0  0  0  0  0  0
    5.4510    2.0490    0.0000 F   0  0  0  0  0  0  0  0  0  0  0  0
    8.0490    0.5490    0.0000 F   0  0  0  0  0  0  0  0  0  0  0  0
    7.5000    2.5981    0.0000 C   0  0  0  0  0  0  0  0  0  0  0  0
    8.7990    1.8481    0.0000 F   0  0  0  0  0  0  0  0  0  0  0  0
    6.2010    3.3481    0.0000 F   0  0  0  0  0  0  0  0  0  0  0  0
    8.2500    3.8971    0.0000 C   0  0  0  0  0  0  0  0  0  0  0  0
    9.5490    3.1471    0.0000 F   0  0  0  0  0  0  0  0  0  0  0  0
    6.9510    4.6471    0.0000 F   0  0  0  0  0  0  0  0  0  0  0  0
    9.0000    5.1962    0.0000 C   0  0  0  0  0  0  0  0  0  0  0  0
    9.7500    6.4952    0.0000 F   0  0  0  0  0  0  0  0  0  0  0  0
    7.7010    5.9462    0.0000 F   0  0  0  0  0  0  0  0  0  0  0  0
   10.2990    4.4462    0.0000 F   0  0  0  0  0  0  0  0  0  0  0  0
    6.7500   -1.2990    0.0000 C   0  0  0  0  0  0  0  0  0  0  0  0
    5.4510   -2.0490    0.0000 F   0  0  0  0  0  0  0  0  0  0  0  0
    8.0490   -0.5490    0.0000 F   0  0  0  0  0  0  0  0  0  0  0  0
    7.5000   -2.5981    0.0000 C   0  0  0  0  0  0  0  0  0  0  0  0
    8.7990   -1.8481    0.0000 F   0  0  0  0  0  0  0  0  0  0  0  0
    6.2010   -3.3481    0.0000 F   0  0  0  0  0  0  0  0  0  0  0  0
    8.2500   -3.8971    0.0000 C   0  0  0  0  0  0  0  0  0  0  0  0
    9.5490   -3.1471    0.0000 F   0  0  0  0  0  0  0  0  0  0  0  0
    6.9510   -4.6471    0.0000 F   0  0  0  0  0  0  0  0  0  0  0  0
    9.0000   -5.1962    0.0000 C   0  0  0  0  0  0  0  0  0  0  0  0
    9.7500   -6.4952    0.0000 F   0  0  0  0  0  0  0  0  0  0  0  0
    7.7010   -5.9462    0.0000 F   0  0  0  0  0  0  0  0  0  0  0  0
   10.2990   -4.4462    0.0000 F   0  0  0  0  0  0  0  0  0  0  0  0
  1  2  1  0
  2  3  1  0
  2  4  1  0
  2  5  1  0
  5  6  1  0
  5  7  1  0
  5  8  1  0
  8  9  1  0
  8 10  1  0
  8 11  1  0
 11 12  1  0
 11 13  1  0
 11 14  1  0
 14 15  1  0
 15 16  1  0
 15 17  1  0
 15 18  1  0
 18 19  1  0
 18 20  1  0
 18 21  1  0
 21 22  1  0
 21 23  1  0
 21 24  1  0
 24 25  1  0
 24 26  1  0
 24 27  1  0
 14 28  1  0
 28 29  1  0
 28 30  1  0
 28 31  1  0
 31 32  1  0
 31 33  1  0
 31 34  1  0
 34 35  1  0
 34 36  1  0
 34 37  1  0
 37 38  1  0
 37 39  1  0
 37 40  1  0
M  END
$$$$

     RDKit          2D

 13 12  0  0  0  0  0  0  0  0999 V2000
    0.0000    0.0000    0.0000 C   0  0  0  0  0  0  0  0  0  0  0  0
    1.2990    0.7500    0.0000 C   0  0  0  0  0  0  0  0  0  0  0  0
    2.5981   -0.0000    0.0000 C   0  0  0  0  0  0  0  0  0  0  0  0
    2.5981   -1.5000    0.0000 S   0  0  0  0  0  0  0  0  0  0  0  0
    3.8971    0.7500    0.0000 C   0  0  0  0  0  0  0  0  0  0  0  0
    5.1962   -0.0000    0.0000 C   0  0  0  0  0  0  0  0  0  0  0  0
    5.1962   -1.5000    0.0000 O   0  0  0  0  0  0  0  0  0  0  0  0
    6.4952    0.7500    0.0000 C   0  0  0  0  0  0  0  0  0  0  0  0
    7.2452   -0.5490    0.0000 F   0  0  0  0  0  0  0  0  0  0  0  0
    5.7452    2.0490    0.0000 F   0  0  0  0  0  0  0  0  0  0  0  0
    7.7942    1.5000    0.0000 C   0  0  0  0  0  0  0  0  0  0  0  0
    7.7942    3.0000    0.0000 F   0  0  0  0  0  0  0  0  0  0  0  0
    9.0933    0.7500    0.0000 F   0  0  0  0  0  0  0  0  0  0  0  0
  1  2  1  0
  2  3  1  0
  3  4  1  0
  3  5  2  3
  5  6  1  0
  6  7  2  0
  6  8  1  0
  8  9  1  0
  8 10  1  0
  8 11  1  0
 11 12  1  0
 11 13  1  0
M  END
$$$$

     RDKit          2D

 35 34  0  0  0  0  0  0  0  0999 V2000
   -1.2990    2.2500    0.0000 O   0  0  0  0  0  0  0  0  0  0  0  0
   -1.2990    0.7500    0.0000 C   0  0  0  0  0  0  0  0  0  0  0  0
    0.0000    0.0000    0.0000 C   0  0  0  0  0  0  0  0  0  0  0  0
    1.2990    0.7500    0.0000 C   0  0  0  0  0  0  0  0  0  0  0  0
    2.5981   -0.0000    0.0000 C   0  0  0  0  0  0  0  0  0  0  0  0
    3.8971    0.7500    0.0000 C   0  0  0  0  0  0  0  0  0  0  0  0
    3.8971    2.2500    0.0000 O   0  0  0  0  0  0  0  0  0  0  0  0
    5.1962   -0.0000    0.0000 O   0  0  0  0  0  0  0  0  0  0  0  0
    6.4952    0.7500    0.0000 C   0  0  0  0  0  0  0  0  0  0  0  0
    7.7942   -0.0000    0.0000 C   0  0  0  0  0  0  0  0  0  0  0  0
    8.5442    1.2990    0.0000 F   0  0  0  0  0  0  0  0  0  0  0  0
    7.0442   -1.2990    0.0000 F   0  0  0  0  0  0  0  0  0  0  0  0
    9.0933   -0.7500    0.0000 C   0  0  0  0  0  0  0  0  0  0  0  0
    8.3433   -2.0490    0.0000 F   0  0  0  0  0  0  0  0  0  0  0  0
    9.8433    0.5490    0.0000 F   0  0  0  0  0  0  0  0  0  0  0  0
   10.3923   -1.5000    0.0000 C   0  0  0  0  0  0  0  0  0  0  0  0
    9.6423   -2.7990    0.0000 F   0  0  0  0  0  0  0  0  0  0  0  0
   11.1423   -0.2010    0.0000 F   0  0  0  0  0  0  0  0  0  0  0  0
   11.6913   -2.2500    0.0000 C   0  0  0  0  0  0  0  0  0  0  0  0
   11.6913   -3.7500    0.0000 F   0  0  0  0  0  0  0  0  0  0  0  0
   12.9904   -1.5000    0.0000 F   0  0  0  0  0  0  0  0  0  0  0  0
   -2.5981    0.0000    0.0000 O   0  0  0  0  0  0  0  0  0  0  0  0
   -3.8971    0.7500    0.0000 C   0  0  0  0  0  0  0  0  0  0  0  0
   -5.1962    0.0000    0.0000 C   0  0  0  0  0  0  0  0  0  0  0  0
   -5.9462    1.2990    0.0000 F   0  0  0  0  0  0  0  0  0  0  0  0
   -4.4462   -1.2990    0.0000 F   0  0  0  0  0  0  0  0  0  0  0  0
   -6.4952   -0.7500    0.0000 C   0  0  0  0  0  0  0  0  0  0  0  0
   -5.7452   -2.0490    0.0000 F   0  0  0  0  0  0  0  0  0  0  0  0
   -7.2452    0.5490    0.0000 F   0  0  0  0  0  0  0  0  0  0  0  0
   -7.7942   -1.5000    0.0000 C   0  0  0  0  0  0  0  0  0  0  0  0
   -7.0442   -2.7990    0.0000 F   0  0  0  0  0  0  0  0  0  0  0  0
   -8.5442   -0.2010    0.0000 F   0  0  0  0  0  0  0  0  0  0  0  0
   -9.0933   -2.2500    0.0000 C   0  0  0  0  0  0  0  0  0  0  0  0
   -9.0933   -3.7500    0.0000 F   0  0  0  0  0  0  0  0  0  0  0  0
  -10.3923   -1.5000    0.0000 F   0  0  0  0  0  0  0  0  0  0  0  0
  1  2  2  0
  2  3  1  0
  3  4  1  0
  4  5  1  0
  5  6  1  0
  6  7  2  0
  6  8  1  0
  8  9  1  0
  9 10  1  0
 10 11  1  0
 10 12  1  0
 10 13  1  0
 13 14  1  0
 13 15  1  0
 13 16  1  0
 16 17  1  0
 16 18  1  0
 16 19  1  0
 19 20  1  0
 19 21  1  0
  2 22  1  0
 22 23  1  0
 23 24  1  0
 24 25  1  0
 24 26  1  0
 24 27  1  0
 27 28  1  0
 27 29  1  0
 27 30  1  0
 30 31  1  0
 30 32  1  0
 30 33  1  0
 33 34  1  0
 33 35  1  0
M  END
$$$$

     RDKit          2D

 16 16  0  0  0  0  0  0  0  0999 V2000
    3.0000    0.0000    0.0000 N   0  0  0  0  0  0  0  0  0  0  0  0
    1.5000    0.0000    0.0000 C   0  0  0  0  0  0  0  0  0  0  0  0
    0.7500   -1.2990    0.0000 N   0  0  0  0  0  0  0  0  0  0  0  0
   -0.7500   -1.2990    0.0000 C   0  0  0  0  0  0  0  0  0  0  0  0
   -1.5000   -2.5981    0.0000 O   0  0  0  0  0  0  0  0  0  0  0  0
   -1.5000    0.0000    0.0000 C   0  0  0  0  0  0  0  0  0  0  0  0
   -3.0000    0.0000    0.0000 F   0  0  0  0  0  0  0  0  0  0  0  0
   -0.7500    1.2990    0.0000 C   0  0  0  0  0  0  0  0  0  0  0  0
   -1.5000    2.5981    0.0000 C   0  0  0  0  0  0  0  0  0  0  0  0
   -0.2010    3.3481    0.0000 F   0  0  0  0  0  0  0  0  0  0  0  0
   -2.7990    1.8481    0.0000 F   0  0  0  0  0  0  0  0  0  0  0  0
   -2.2500    3.8971    0.0000 C   0  0  0  0  0  0  0  0  0  0  0  0
   -3.0000    5.1962    0.0000 F   0  0  0  0  0  0  0  0  0  0  0  0
   -3.5490    3.1471    0.0000 F   0  0  0  0  0  0  0  0  0  0  0  0
   -0.9510    4.6471    0.0000 F   0  0  0  0  0  0  0  0  0  0  0  0
    0.7500    1.2990    0.0000 N   0  0  0  0  0  0  0  0  0  0  0  0
  1  2  1  0
  2  3  2  0
  3  4  1  0
  4  5  2  0
  4  6  1  0
  6  7  1  0
  6  8  2  0
  8  9  1  0
  9 10  1  0
  9 11  1  0
  9 12  1  0
 12 13  1  0
 12 14  1  0
 12 15  1  0
  8 16  1  0
 16  2  1  0
M  END
$$$$

     RDKit          2D

 24 25  0  0  0  0  0  0  0  0999 V2000
    2.7990   -1.8481    0.0000 O   0  0  0  0  0  0  0  0  0  0  0  0
    1.5000   -2.5981    0.0000 C   0  0  0  0  0  0  0  0  0  0  0  0
    0.7500   -1.2990    0.0000 C   0  0  0  0  0  0  0  0  0  0  0  0
    1.5000    0.0000    0.0000 C   0  0  0  0  0  0  0  0  0  0  0  0
    0.7500    1.2990    0.0000 C   0  0  0  0  0  0  0  0  0  0  0  0
   -0.7500    1.2990    0.0000 C   0  0  0  0  0  0  0  0  0  0  0  0
   -1.5000    0.0000    0.0000 C   0  0  0  0  0  0  0  0  0  0  0  0
   -0.7500   -1.2990    0.0000 C   0  0  0  0  0  0  0  0  0  0  0  0
    2.2500   -3.8971    0.0000 C   0  0  0  0  0  0  0  0  0  0  0  0
    3.7500   -3.8971    0.0000 C   0  0  0  0  0  0  0  0  0  0  0  0
    4.5000   -5.1962    0.0000 C   0  0  0  0  0  0  0  0  0  0  0  0
    3.7500   -6.4952    0.0000 C   0  0  0  0  0  0  0  0  0  0  0  0
    2.2500   -6.4952    0.0000 C   0  0  0  0  0  0  0  0  0  0  0  0
    1.5000   -5.1962    0.0000 C   0  0  0  0  0  0  0  0  0  0  0  0
    0.2010   -3.3481    0.0000 C   0  0  0  0  0  0  0  0  0  0  0  0
    0.6143   -4.7900    0.0000 F   0  0  0  0  0  0  0  0  0  0  0  0
   -0.8411   -2.2691    0.0000 F   0  0  0  0  0  0  0  0  0  0  0  0
   -1.0981   -4.0981    0.0000 C   0  0  0  0  0  0  0  0  0  0  0  0
   -1.8481   -2.7990    0.0000 F   0  0  0  0  0  0  0  0  0  0  0  0
   -0.3481   -5.3971    0.0000 F   0  0  0  0  0  0  0  0  0  0  0  0
   -2.3971   -4.8481    0.0000 C   0  0  0  0  0  0  0  0  0  0  0  0
   -3.6962   -5.5981    0.0000 F   0  0  0  0  0  0  0  0  0  0  0  0
   -1.6471   -6.1471    0.0000 F   0  0  0  0  0  0  0  0  0  0  0  0
   -3.1471   -3.5490    0.0000 F   0  0  0  0  0  0  0  0  0  0  0  0
  1  2  1  0
  2  3  1  0
  3  4  2  0
  4  5  1  0
  5  6  2  0
  6  7  1  0
  7  8  2  0
  2  9  1  0
  9 10  2  0
 10 11  1  0
 11 12  2  0
 12 13  1  0
 13 14  2  0
  2 15  1  0
 15 16  1  0
 15 17  1  0
 15 18  1  0
 18 19  1  0
 18 20  1  0
 18 21  1  0
 21 22  1  0
 21 23  1  0
 21 24  1  0
  8  3  1  0
 14  9  1  0
M  END
$$$$

     RDKit          2D

 25 25  0  0  0  0  0  0  0  0999 V2000
    7.2760    0.0000    0.0000 F   0  0  0  0  0  0  0  0  0  0  0  0
    5.7760    0.0000    0.0000 C   0  0  0  0  0  0  0  0  0  0  0  0
    5.7760   -1.5000    0.0000 F   0  0  0  0  0  0  0  0  0  0  0  0
    5.7760    1.5000    0.0000 F   0  0  0  0  0  0  0  0  0  0  0  0
    4.2760    0.0000    0.0000 C   0  0  0  0  0  0  0  0  0  0  0  0
    4.2760    1.5000    0.0000 F   0  0  0  0  0  0  0  0  0  0  0  0
    4.2760   -1.5000    0.0000 F   0  0  0  0  0  0  0  0  0  0  0  0
    2.7760    0.0000    0.0000 C   0  0  0  0  0  0  0  0  0  0  0  0
    2.7760   -1.5000    0.0000 F   0  0  0  0  0  0  0  0  0  0  0  0
    2.7760    1.5000    0.0000 F   0  0  0  0  0  0  0  0  0  0  0  0
    1.2760    0.0000    0.0000 C   0  0  0  0  0  0  0  0  0  0  0  0
    0.3943    1.2135    0.0000 N   0  0  0  0  0  0  0  0  0  0  0  0
   -1.0323    0.7500    0.0000 N   0  0  0  0  0  0  0  0  0  0  0  0
   -1.0323   -0.7500    0.0000 C   0  0  0  0  0  0  0  0  0  0  0  0
   -2.2458   -1.6317    0.0000 C   0  0  0  0  0  0  0  0  0  0  0  0
   -3.1275   -0.4182    0.0000 F   0  0  0  0  0  0  0  0  0  0  0  0
   -1.3641   -2.8452    0.0000 F   0  0  0  0  0  0  0  0  0  0  0  0
   -3.4593   -2.5134    0.0000 C   0  0  0  0  0  0  0  0  0  0  0  0
   -2.5777   -3.7269    0.0000 F   0  0  0  0  0  0  0  0  0  0  0  0
   -4.3410   -1.2998    0.0000 F   0  0  0  0  0  0  0  0  0  0  0  0
   -4.6729   -3.3950    0.0000 C   0  0  0  0  0  0  0  0  0  0  0  0
   -5.8864   -4.2767    0.0000 F   0  0  0  0  0  0  0  0  0  0  0  0
   -5.5545   -2.1815    0.0000 F   0  0  0  0  0  0  0  0  0  0  0  0
   -3.7912   -4.6086    0.0000 F   0  0  0  0  0  0  0  0  0  0  0  0
    0.3943   -1.2135    0.0000 N   0  0  0  0  0  0  0  0  0  0  0  0
  1  2  1  0
  2  3  1  0
  2  4  1  0
  2  5  1  0
  5  6  1  0
  5  7  1  0
  5  8  1  0
  8  9  1  0
  8 10  1  0
  8 11  1  0
 11 12  2  0
 12 13  1  0
 13 14  1  0
 14 15  1  0
 15 16  1  0
 15 17  1  0
 15 18  1  0
 18 19  1  0
 18 20  1  0
 18 21  1  0
 21 22  1  0
 21 23  1  0
 21 24  1  0
 14 25  2  0
 25 11  1  0
M  END
$$$$

     RDKit          2D

 21 21  0  0  0  0  0  0  0  0999 V2000
    2.7760    0.0000    0.0000 C   0  0  0  0  0  0  0  0  0  0  0  0
    1.2760    0.0000    0.0000 C   0  0  0  0  0  0  0  0  0  0  0  0
    0.3943    1.2135    0.0000 C   0  0  0  0  0  0  0  0  0  0  0  0
   -1.0323    0.7500    0.0000 C   0  0  0  0  0  0  0  0  0  0  0  0
   -1.0323   -0.7500    0.0000 S   0  0  0  0  0  0  0  0  0  0  0  0
    0.3943   -1.2135    0.0000 C   0  0  0  0  0  0  0  0  0  0  0  0
    0.8578   -2.6401    0.0000 C   0  0  0  0  0  0  0  0  0  0  0  0
    2.3250   -2.9520    0.0000 O   0  0  0  0  0  0  0  0  0  0  0  0
   -0.1459   -3.7548    0.0000 C   0  0  0  0  0  0  0  0  0  0  0  0
    0.3177   -5.1814    0.0000 C   0  0  0  0  0  0  0  0  0  0  0  0
    1.7849   -5.4933    0.0000 O   0  0  0  0  0  0  0  0  0  0  0  0
   -0.6860   -6.2961    0.0000 C   0  0  0  0  0  0  0  0  0  0  0  0
    0.4287   -7.2998    0.0000 F   0  0  0  0  0  0  0  0  0  0  0  0
   -1.8008   -5.2924    0.0000 F   0  0  0  0  0  0  0  0  0  0  0  0
   -1.6897   -7.4108    0.0000 C   0  0  0  0  0  0  0  0  0  0  0  0
   -2.8045   -6.4072    0.0000 F   0  0  0  0  0  0  0  0  0  0  0  0
   -0.5750   -8.4145    0.0000 F   0  0  0  0  0  0  0  0  0  0  0  0
   -2.6934   -8.5256    0.0000 C   0  0  0  0  0  0  0  0  0  0  0  0
   -3.6971   -9.6403    0.0000 F   0  0  0  0  0  0  0  0  0  0  0  0
   -1.5787   -9.5293    0.0000 F   0  0  0  0  0  0  0  0  0  0  0  0
   -3.8082   -7.5219    0.0000 F   0  0  0  0  0  0  0  0  0  0  0  0
  1  2  1  0
  2  3  1  0
  3  4  2  0
  4  5  1  0
  5  6  1  0
  6  7  1  0
  7  8  2  0
  7  9  1  0
  9 10  1  0
 10 11  2  0
 10 12  1  0
 12 13  1  0
 12 14  1  0
 12 15  1  0
 15 16  1  0
 15 17  1  0
 15 18  1  0
 18 19  1  0
 18 20  1  0
 18 21  1  0
  6  2  2  0
M  END
$$$$

     RDKit          2D

 22 22  0  0  0  0  0  0  0  0999 V2000
    2.7760    0.0000    0.0000 C   0  0  0  0  0  0  0  0  0  0  0  0
    1.2760    0.0000    0.0000 C   0  0  0  0  0  0  0  0  0  0  0  0
    0.3943    1.2135    0.0000 C   0  0  0  0  0  0  0  0  0  0  0  0
   -1.0323    0.7500    0.0000 C   0  0  0  0  0  0  0  0  0  0  0  0
   -2.2458    1.6317    0.0000 C   0  0  0  0  0  0  0  0  0  0  0  0
   -3.6161    1.0216    0.0000 O   0  0  0  0  0  0  0  0  0  0  0  0
   -2.0890    3.1235    0.0000 C   0  0  0  0  0  0  0  0  0  0  0  0
   -3.3025    4.0051    0.0000 C   0  0  0  0  0  0  0  0  0  0  0  0
   -4.6729    3.3950    0.0000 O   0  0  0  0  0  0  0  0  0  0  0  0
   -3.1458    5.4969    0.0000 C   0  0  0  0  0  0  0  0  0  0  0  0
   -4.6375    5.6537    0.0000 F   0  0  0  0  0  0  0  0  0  0  0  0
   -1.6540    5.3401    0.0000 F   0  0  0  0  0  0  0  0  0  0  0  0
   -2.9890    6.9887    0.0000 C   0  0  0  0  0  0  0  0  0  0  0  0
   -1.4972    6.8319    0.0000 F   0  0  0  0  0  0  0  0  0  0  0  0
   -4.4807    7.1455    0.0000 F   0  0  0  0  0  0  0  0  0  0  0  0
   -2.8322    8.4805    0.0000 C   0  0  0  0  0  0  0  0  0  0  0  0
   -2.6754    9.9723    0.0000 F   0  0  0  0  0  0  0  0  0  0  0  0
   -4.3239    8.6373    0.0000 F   0  0  0  0  0  0  0  0  0  0  0  0
   -1.3404    8.3237    0.0000 F   0  0  0  0  0  0  0  0  0  0  0  0
   -1.0323   -0.7500    0.0000 C   0  0  0  0  0  0  0  0  0  0  0  0
   -2.2458   -1.6317    0.0000 C   0  0  0  0  0  0  0  0  0  0  0  0
    0.3943   -1.2135    0.0000 O   0  0  0  0  0  0  0  0  0  0  0  0
  1  2  1  0
  2  3  2  0
  3  4  1  0
  4  5  1  0
  5  6  2  0
  5  7  1  0
  7  8  1  0
  8  9  2  0
  8 10  1  0
 10 11  1  0
 10 12  1  0
 10 13  1  0
 13 14  1  0
 13 15  1  0
 13 16  1  0
 16 17  1  0
 16 18  1  0
 16 19  1  0
  4 20  2  0
 20 21  1  0
 20 22  1  0
 22  2  1  0
M  END
$$$$

     RDKit          2D

 31 31  0  0  0  0  0  0  0  0999 V2000
   -0.0000    2.2990    0.0000 O   0  0  0  0  0  0  0  0  0  0  0  0
    0.0000    3.7990    0.0000 C   0  0  0  0  0  0  0  0  0  0  0  0
   -1.2990    4.5490    0.0000 O   0  0  0  0  0  0  0  0  0  0  0  0
    1.2990    4.5490    0.0000 C   0  0  0  0  0  0  0  0  0  0  0  0
    2.0490    3.2500    0.0000 F   0  0  0  0  0  0  0  0  0  0  0  0
    0.5490    5.8481    0.0000 F   0  0  0  0  0  0  0  0  0  0  0  0
    2.5981    5.2990    0.0000 C   0  0  0  0  0  0  0  0  0  0  0  0
    1.8481    6.5981    0.0000 F   0  0  0  0  0  0  0  0  0  0  0  0
    3.3481    4.0000    0.0000 Cl  0  0  0  0  0  0  0  0  0  0  0  0
    3.8971    6.0490    0.0000 C   0  0  0  0  0  0  0  0  0  0  0  0
    4.6471    4.7500    0.0000 F   0  0  0  0  0  0  0  0  0  0  0  0
    3.1471    7.3481    0.0000 F   0  0  0  0  0  0  0  0  0  0  0  0
    5.1962    6.7990    0.0000 C   0  0  0  0  0  0  0  0  0  0  0  0
    4.4462    8.0981    0.0000 F   0  0  0  0  0  0  0  0  0  0  0  0
    5.9462    5.5000    0.0000 Cl  0  0  0  0  0  0  0  0  0  0  0  0
    6.4952    7.5490    0.0000 C   0  0  0  0  0  0  0  0  0  0  0  0
    7.7942    8.2990    0.0000 F   0  0  0  0  0  0  0  0  0  0  0  0
    7.2452    6.2500    0.0000 F   0  0  0  0  0  0  0  0  0  0  0  0
    5.7452    8.8481    0.0000 Cl  0  0  0  0  0  0  0  0  0  0  0  0
    1.5000    0.0000    0.0000 C   0  0  0  0  0  0  0  0  0  0  0  0
    0.7500   -1.2990    0.0000 C   0  0  0  0  0  0  0  0  0  0  0  0
   -0.7500   -1.2990    0.0000 C   0  0  0  0  0  0  0  0  0  0  0  0
   -1.5000    0.0000    0.0000 C   0  0  0  0  0  0  0  0  0  0  0  0
   -3.0000    0.0000    0.0000 N   0  0  0  0  0  0  0  0  0  0  0  0
   -3.7500    1.2990    0.0000 C   0  0  0  0  0  0  0  0  0  0  0  0
   -5.2500    1.2990    0.0000 C   0  0  0  0  0  0  0  0  0  0  0  0
   -6.0000    0.0000    0.0000 N   0  0  0  0  0  0  0  0  0  0  0  0
   -5.2500   -1.2990    0.0000 C   0  0  0  0  0  0  0  0  0  0  0  0
   -3.7500   -1.2990    0.0000 C   0  0  0  0  0  0  0  0  0  0  0  0
   -0.7500    1.2990    0.0000 C   0  0  0  0  0  0  0  0  0  0  0  0
    0.7500    1.2990    0.0000 C   0  0  0  0  0  0  0  0  0  0  0  0
  1  2  2  0
  2  3  1  0
  2  4  1  0
  4  5  1  0
  4  6  1  0
  4  7  1  0
  7  8  1  0
  7  9  1  0
  7 10  1  0
 10 11  1  0
 10 12  1  0
 10 13  1  0
 13 14  1  0
 13 15  1  0
 13 16  1  0
 16 17  1  0
 16 18  1  0
 16 19  1  0
 20 21  2  0
 21 22  1  0
 22 23  2  0
 23 24  1  0
 24 25  1  0
 25 26  1  0
 26 27  1  0
 27 28  1  0
 28 29  1  0
 23 30  1  0
 30 31  2  0
 31 20  1  0
 29 24  1  0
M  END
$$$$

     RDKit          2D

 17 18  0  0  0  0  0  0  0  0999 V2000
    3.0000    0.0000    0.0000 F   0  0  0  0  0  0  0  0  0  0  0  0
    1.5000    0.0000    0.0000 C   0  0  0  0  0  0  0  0  0  0  0  0
    0.7500   -1.2990    0.0000 C   0  0  0  0  0  0  0  0  0  0  0  0
   -0.7500   -1.2990    0.0000 C   0  0  0  0  0  0  0  0  0  0  0  0
   -1.5000    0.0000    0.0000 C   0  0  0  0  0  0  0  0  0  0  0  0
   -2.9672    0.3119    0.0000 N   0  0  0  0  0  0  0  0  0  0  0  0
   -3.1240    1.8037    0.0000 C   0  0  0  0  0  0  0  0  0  0  0  0
   -4.4231    2.5537    0.0000 C   0  0  0  0  0  0  0  0  0  0  0  0
   -3.6731    3.8527    0.0000 F   0  0  0  0  0  0  0  0  0  0  0  0
   -5.1731    1.2546    0.0000 F   0  0  0  0  0  0  0  0  0  0  0  0
   -5.7221    3.3037    0.0000 C   0  0  0  0  0  0  0  0  0  0  0  0
   -7.0211    4.0537    0.0000 F   0  0  0  0  0  0  0  0  0  0  0  0
   -6.4721    2.0046    0.0000 F   0  0  0  0  0  0  0  0  0  0  0  0
   -4.9721    4.6027    0.0000 F   0  0  0  0  0  0  0  0  0  0  0  0
   -1.7537    2.4138    0.0000 N   0  0  0  0  0  0  0  0  0  0  0  0
   -0.7500    1.2990    0.0000 C   0  0  0  0  0  0  0  0  0  0  0  0
    0.7500    1.2990    0.0000 C   0  0  0  0  0  0  0  0  0  0  0  0
  1  2  1  0
  2  3  2  0
  3  4  1  0
  4  5  2  0
  5  6  1  0
  6  7  2  0
  7  8  1  0
  8  9  1  0
  8 10  1  0
  8 11  1  0
 11 12  1  0
 11 13  1  0
 11 14  1  0
  7 15  1  0
 15 16  1  0
 16 17  2  0
 17  2  1  0
 16  5  1  0
M  END
$$$$

     RDKit          2D

 17 18  0  0  0  0  0  0  0  0999 V2000
    3.7044   -5.9181    0.0000 F   0  0  0  0  0  0  0  0  0  0  0  0
    2.2272   -5.6576    0.0000 C   0  0  0  0  0  0  0  0  0  0  0  0
    1.9667   -7.1348    0.0000 F   0  0  0  0  0  0  0  0  0  0  0  0
    2.4877   -4.1804    0.0000 F   0  0  0  0  0  0  0  0  0  0  0  0
    0.7500   -5.3971    0.0000 C   0  0  0  0  0  0  0  0  0  0  0  0
    0.2370   -6.8067    0.0000 F   0  0  0  0  0  0  0  0  0  0  0  0
    0.7500   -3.8971    0.0000 N   0  0  0  0  0  0  0  0  0  0  0  0
    1.5000   -2.5981    0.0000 C   0  0  0  0  0  0  0  0  0  0  0  0
    0.7500   -1.2990    0.0000 C   0  0  0  0  0  0  0  0  0  0  0  0
    1.5000    0.0000    0.0000 C   0  0  0  0  0  0  0  0  0  0  0  0
    0.7500    1.2990    0.0000 C   0  0  0  0  0  0  0  0  0  0  0  0
   -0.7500    1.2990    0.0000 C   0  0  0  0  0  0  0  0  0  0  0  0
   -1.5000    0.0000    0.0000 C   0  0  0  0  0  0  0  0  0  0  0  0
   -0.7500   -1.2990    0.0000 C   0  0  0  0  0  0  0  0  0  0  0  0
   -0.5490   -4.6471    0.0000 C   0  0  0  0  0  0  0  0  0  0  0  0
   -1.5132   -5.7962    0.0000 F   0  0  0  0  0  0  0  0  0  0  0  0
   -1.5132   -3.4980    0.0000 F   0  0  0  0  0  0  0  0  0  0  0  0
  1  2  1  0
  2  3  1  0
  2  4  1  0
  2  5  1  0
  5  6  1  0
  5  7  1  0
  7  8  1  0
  8  9  1  0
  9 10  2  0
 10 11  1  0
 11 12  2  0
 12 13  1  0
 13 14  2  0
  7 15  1  0
 15 16  1  0
 15 17  1  0
 15  5  1  0
 14  9  1  0
M  END
$$$$

     RDKit          2D

 19 19  0  0  0  0  0  0  0  0999 V2000
    3.0000    0.0000    0.0000 C   0  0  0  0  0  0  0  0  0  0  0  0
    1.5000    0.0000    0.0000 C   0  0  0  0  0  0  0  0  0  0  0  0
    0.7500   -1.2990    0.0000 C   0  0  0  0  0  0  0  0  0  0  0  0
   -0.7500   -1.2990    0.0000 C   0  0  0  0  0  0  0  0  0  0  0  0
   -1.5000    0.0000    0.0000 C   0  0  0  0  0  0  0  0  0  0  0  0
   -0.7500    1.2990    0.0000 C   0  0  0  0  0  0  0  0  0  0  0  0
   -1.5000    2.5981    0.0000 C   0  0  0  0  0  0  0  0  0  0  0  0
   -3.0000    2.5981    0.0000 O   0  0  0  0  0  0  0  0  0  0  0  0
   -0.7500    3.8971    0.0000 C   0  0  0  0  0  0  0  0  0  0  0  0
   -1.5000    5.1962    0.0000 C   0  0  0  0  0  0  0  0  0  0  0  0
   -0.7500    6.4952    0.0000 C   0  0  0  0  0  0  0  0  0  0  0  0
   -0.0000    7.7942    0.0000 F   0  0  0  0  0  0  0  0  0  0  0  0
   -2.0490    7.2452    0.0000 F   0  0  0  0  0  0  0  0  0  0  0  0
    0.5490    5.7452    0.0000 F   0  0  0  0  0  0  0  0  0  0  0  0
   -3.0000    5.1962    0.0000 C   0  0  0  0  0  0  0  0  0  0  0  0
   -4.5000    5.1962    0.0000 F   0  0  0  0  0  0  0  0  0  0  0  0
   -3.0000    6.6962    0.0000 F   0  0  0  0  0  0  0  0  0  0  0  0
   -3.0000    3.6962    0.0000 F   0  0  0  0  0  0  0  0  0  0  0  0
    0.7500    1.2990    0.0000 C   0  0  0  0  0  0  0  0  0  0  0  0
  1  2  1  0
  2  3  2  0
  3  4  1  0
  4  5  2  0
  5  6  1  0
  6  7  1  0
  7  8  2  0
  7  9  1  0
  9 10  2  0
 10 11  1  0
 11 12  1  0
 11 13  1  0
 11 14  1  0
 10 15  1  0
 15 16  1  0
 15 17  1  0
 15 18  1  0
  6 19  2  0
 19  2  1  0
M  END
$$$$

     RDKit          2D

 16 15  0  0  0  0  0  0  0  0999 V2000
    0.0000    0.0000    0.0000 C   0  0  0  0  0  0  0  0  0  0  0  0
    1.2990    0.7500    0.0000 C   0  0  0  0  0  0  0  0  0  0  0  0
    2.5981    1.5000    0.0000 C   0  0  0  0  0  0  0  0  0  0  0  0
    2.0490   -0.5490    0.0000 C   0  0  0  0  0  0  0  0  0  0  0  0
    0.5490    2.0490    0.0000 C   0  0  0  0  0  0  0  0  0  0  0  0
   -0.9510    2.0490    0.0000 O   0  0  0  0  0  0  0  0  0  0  0  0
    1.2990    3.3481    0.0000 C   0  0  0  0  0  0  0  0  0  0  0  0
    0.5490    4.6471    0.0000 C   0  0  0  0  0  0  0  0  0  0  0  0
    1.2990    5.9462    0.0000 C   0  0  0  0  0  0  0  0  0  0  0  0
    2.0490    7.2452    0.0000 F   0  0  0  0  0  0  0  0  0  0  0  0
    0.0000    6.6962    0.0000 F   0  0  0  0  0  0  0  0  0  0  0  0
    2.5981    5.1962    0.0000 F   0  0  0  0  0  0  0  0  0  0  0  0
   -0.9510    4.6471    0.0000 C   0  0  0  0  0  0  0  0  0  0  0  0
   -2.4510    4.6471    0.0000 F   0  0  0  0  0  0  0  0  0  0  0  0
   -0.9510    6.1471    0.0000 F   0  0  0  0  0  0  0  0  0  0  0  0
   -0.9510    3.1471    0.0000 F   0  0  0  0  0  0  0  0  0  0  0  0
  1  2  1  0
  2  3  1  0
  2  4  1  0
  2  5  1  0
  5  6  2  0
  5  7  1  0
  7  8  2  0
  8  9  1  0
  9 10  1  0
  9 11  1  0
  9 12  1  0
  8 13  1  0
 13 14  1  0
 13 15  1  0
 13 16  1  0
M  END
$$$$

     RDKit          2D

 22 22  0  0  0  0  0  0  0  0999 V2000
    3.7500   -1.2990    0.0000 C   0  0  0  0  0  0  0  0  0  0  0  0
    3.0000    0.0000    0.0000 O   0  0  0  0  0  0  0  0  0  0  0  0
    1.5000    0.0000    0.0000 C   0  0  0  0  0  0  0  0  0  0  0  0
    0.7500   -1.2990    0.0000 C   0  0  0  0  0  0  0  0  0  0  0  0
   -0.7500   -1.2990    0.0000 C   0  0  0  0  0  0  0  0  0  0  0  0
   -1.5000    0.0000    0.0000 C   0  0  0  0  0  0  0  0  0  0  0  0
   -3.0000    0.0000    0.0000 C   0  0  0  0  0  0  0  0  0  0  0  0
   -3.7500   -1.2990    0.0000 O   0  0  0  0  0  0  0  0  0  0  0  0
   -3.7500    1.2990    0.0000 C   0  0  0  0  0  0  0  0  0  0  0  0
   -5.2388    1.1162    0.0000 C   0  0  0  0  0  0  0  0  0  0  0  0
   -3.0000    2.5981    0.0000 C   0  0  0  0  0  0  0  0  0  0  0  0
   -1.7010    1.8481    0.0000 O   0  0  0  0  0  0  0  0  0  0  0  0
   -2.2500    3.8971    0.0000 C   0  0  0  0  0  0  0  0  0  0  0  0
   -1.5000    5.1962    0.0000 F   0  0  0  0  0  0  0  0  0  0  0  0
   -0.9510    3.1471    0.0000 F   0  0  0  0  0  0  0  0  0  0  0  0
   -2.9574    4.4302    0.0000 F   0  0  0  0  0  0  0  0  0  0  0  0
   -4.2990    3.3481    0.0000 C   0  0  0  0  0  0  0  0  0  0  0  0
   -5.5981    4.0981    0.0000 F   0  0  0  0  0  0  0  0  0  0  0  0
   -3.9530    4.1634    0.0000 F   0  0  0  0  0  0  0  0  0  0  0  0
   -5.2018    2.1501    0.0000 F   0  0  0  0  0  0  0  0  0  0  0  0
   -0.7500    1.2990    0.0000 C   0  0  0  0  0  0  0  0  0  0  0  0
    0.7500    1.2990    0.0000 C   0  0  0  0  0  0  0  0  0  0  0  0
  1  2  1  0
  2  3  1  0
  3  4  2  0
  4  5  1  0
  5  6  2  0
  6  7  1  0
  7  8  2  0
  7  9  1  0
  9 10  1  0
  9 11  1  0
 11 12  1  0
 11 13  1  0
 13 14  1  0
 13 15  1  0
 13 16  1  0
 11 17  1  0
 17 18  1  0
 17 19  1  0
 17 20  1  0
  6 21  1  0
 21 22  2  0
 22  3  1  0
M  END
$$$$

     RDKit          2D

 15 15  0  0  0  0  0  0  0  0999 V2000
    3.0000    0.0000    0.0000 O   0  0  0  0  0  0  0  0  0  0  0  0
    1.5000    0.0000    0.0000 C   0  0  0  0  0  0  0  0  0  0  0  0
    0.7500   -1.2990    0.0000 N   0  0  0  0  0  0  0  0  0  0  0  0
   -0.7500   -1.2990    0.0000 C   0  0  0  0  0  0  0  0  0  0  0  0
   -1.5000    0.0000    0.0000 C   0  0  0  0  0  0  0  0  0  0  0  0
   -3.0000    0.0000    0.0000 C   0  0  0  0  0  0  0  0  0  0  0  0
   -3.7500    1.2990    0.0000 C   0  0  0  0  0  0  0  0  0  0  0  0
   -3.0000    2.5981    0.0000 F   0  0  0  0  0  0  0  0  0  0  0  0
   -5.2500    1.2990    0.0000 C   0  0  0  0  0  0  0  0  0  0  0  0
   -6.7500    1.2990    0.0000 F   0  0  0  0  0  0  0  0  0  0  0  0
   -5.2500    2.7990    0.0000 F   0  0  0  0  0  0  0  0  0  0  0  0
   -5.2500   -0.2010    0.0000 F   0  0  0  0  0  0  0  0  0  0  0  0
   -0.7500    1.2990    0.0000 C   0  0  0  0  0  0  0  0  0  0  0  0
   -1.5000    2.5981    0.0000 O   0  0  0  0  0  0  0  0  0  0  0  0
    0.7500    1.2990    0.0000 N   0  0  0  0  0  0  0  0  0  0  0  0
  1  2  2  0
  2  3  1  0
  3  4  1  0
  4  5  2  0
  5  6  1  0
  6  7  1  0
  7  8  1  0
  7  9  1  0
  9 10  1  0
  9 11  1  0
  9 12  1  0
  5 13  1  0
 13 14  2  0
 13 15  1  0
 15  2  1  0
M  END
$$$$

     RDKit          2D

 24 24  0  0  0  0  0  0  0  0999 V2000
    8.2500   -3.8971    0.0000 C   0  0  0  0  0  0  0  0  0  0  0  0
    7.5000   -2.5981    0.0000 C   0  0  0  0  0  0  0  0  0  0  0  0
    6.0000   -2.5981    0.0000 O   0  0  0  0  0  0  0  0  0  0  0  0
    5.2500   -1.2990    0.0000 C   0  0  0  0  0  0  0  0  0  0  0  0
    6.0000    0.0000    0.0000 O   0  0  0  0  0  0  0  0  0  0  0  0
    3.7500   -1.2990    0.0000 C   0  0  0  0  0  0  0  0  0  0  0  0
    3.0000    0.0000    0.0000 S   0  0  0  0  0  0  0  0  0  0  0  0
    1.5000    0.0000    0.0000 C   0  0  0  0  0  0  0  0  0  0  0  0
    0.7500   -1.2990    0.0000 C   0  0  0  0  0  0  0  0  0  0  0  0
   -0.7500   -1.2990    0.0000 C   0  0  0  0  0  0  0  0  0  0  0  0
   -1.5000    0.0000    0.0000 C   0  0  0  0  0  0  0  0  0  0  0  0
   -3.0000    0.0000    0.0000 C   0  0  0  0  0  0  0  0  0  0  0  0
   -0.7500    1.2990    0.0000 C   0  0  0  0  0  0  0  0  0  0  0  0
    0.7500    1.2990    0.0000 C   0  0  0  0  0  0  0  0  0  0  0  0
    1.5000    2.5981    0.0000 C   0  0  0  0  0  0  0  0  0  0  0  0
    0.2010    3.3481    0.0000 O   0  0  0  0  0  0  0  0  0  0  0  0
    2.2500    3.8971    0.0000 C   0  0  0  0  0  0  0  0  0  0  0  0
    3.0000    5.1962    0.0000 F   0  0  0  0  0  0  0  0  0  0  0  0
    0.9510    4.6471    0.0000 F   0  0  0  0  0  0  0  0  0  0  0  0
    3.0653    3.5511    0.0000 F   0  0  0  0  0  0  0  0  0  0  0  0
    2.7990    1.8481    0.0000 C   0  0  0  0  0  0  0  0  0  0  0  0
    4.0981    1.0981    0.0000 F   0  0  0  0  0  0  0  0  0  0  0  0
    3.3321    2.5554    0.0000 F   0  0  0  0  0  0  0  0  0  0  0  0
    2.4977    0.7969    0.0000 F   0  0  0  0  0  0  0  0  0  0  0  0
  1  2  1  0
  2  3  1  0
  3  4  1  0
  4  5  2  0
  4  6  1  0
  6  7  1  0
  7  8  1  0
  8  9  2  0
  9 10  1  0
 10 11  2  0
 11 12  1  0
 11 13  1  0
 13 14  2  0
 14 15  1  0
 15 16  1  0
 15 17  1  0
 17 18  1  0
 17 19  1  0
 17 20  1  0
 15 21  1  0
 21 22  1  0
 21 23  1  0
 21 24  1  0
 14  8  1  0
M  END
$$$$

     RDKit          2D

 36 38  0  0  0  0  0  0  0  0999 V2000
    7.2760    0.0000    0.0000 F   0  0  0  0  0  0  0  0  0  0  0  0
    5.7760    0.0000    0.0000 C   0  0  0  0  0  0  0  0  0  0  0  0
    5.7760   -1.5000    0.0000 F   0  0  0  0  0  0  0  0  0  0  0  0
    5.7760    1.5000    0.0000 F   0  0  0  0  0  0  0  0  0  0  0  0
    4.2760    0.0000    0.0000 C   0  0  0  0  0  0  0  0  0  0  0  0
    4.2760    1.5000    0.0000 F   0  0  0  0  0  0  0  0  0  0  0  0
    4.2760   -1.5000    0.0000 F   0  0  0  0  0  0  0  0  0  0  0  0
    2.7760    0.0000    0.0000 C   0  0  0  0  0  0  0  0  0  0  0  0
    2.7760   -1.5000    0.0000 F   0  0  0  0  0  0  0  0  0  0  0  0
    2.7760    1.5000    0.0000 F   0  0  0  0  0  0  0  0  0  0  0  0
    1.2760    0.0000    0.0000 C   0  0  0  0  0  0  0  0  0  0  0  0
    0.3943    1.2135    0.0000 N   0  0  0  0  0  0  0  0  0  0  0  0
   -1.0323    0.7500    0.0000 N   0  0  0  0  0  0  0  0  0  0  0  0
   -1.0323   -0.7500    0.0000 N   0  0  0  0  0  0  0  0  0  0  0  0
    0.3943   -1.2135    0.0000 N   0  0  0  0  0  0  0  0  0  0  0  0
    0.8578   -2.6401    0.0000 C   0  0  0  0  0  0  0  0  0  0  0  0
   -0.1459   -3.7548    0.0000 C   0  0  0  0  0  0  0  0  0  0  0  0
   -1.2606   -2.7511    0.0000 C   0  0  0  0  0  0  0  0  0  0  0  0
   -2.6872   -3.2147    0.0000 N   0  0  0  0  0  0  0  0  0  0  0  0
   -3.1507   -4.6412    0.0000 N   0  0  0  0  0  0  0  0  0  0  0  0
   -4.6507   -4.6412    0.0000 N   0  0  0  0  0  0  0  0  0  0  0  0
   -5.1142   -3.2147    0.0000 N   0  0  0  0  0  0  0  0  0  0  0  0
   -3.9007   -2.3330    0.0000 C   0  0  0  0  0  0  0  0  0  0  0  0
   -3.9007   -0.8330    0.0000 C   0  0  0  0  0  0  0  0  0  0  0  0
   -5.4007   -0.8330    0.0000 F   0  0  0  0  0  0  0  0  0  0  0  0
   -2.4007   -0.8330    0.0000 F   0  0  0  0  0  0  0  0  0  0  0  0
   -3.9007    0.6670    0.0000 C   0  0  0  0  0  0  0  0  0  0  0  0
   -5.4007    0.6670    0.0000 F   0  0  0  0  0  0  0  0  0  0  0  0
   -2.4007    0.6670    0.0000 F   0  0  0  0  0  0  0  0  0  0  0  0
   -3.9007    2.1670    0.0000 C   0  0  0  0  0  0  0  0  0  0  0  0
   -3.9007    3.6670    0.0000 F   0  0  0  0  0  0  0  0  0  0  0  0
   -2.4007    2.1670    0.0000 F   0  0  0  0  0  0  0  0  0  0  0  0
   -5.4007    2.1670    0.0000 F   0  0  0  0  0  0  0  0  0  0  0  0
    0.9688   -4.7585    0.0000 C   0  0  0  0  0  0  0  0  0  0  0  0
   -0.0349   -5.8732    0.0000 O   0  0  0  0  0  0  0  0  0  0  0  0
   -1.1496   -4.8695    0.0000 C   0  0  0  0  0  0  0  0  0  0  0  0
  1  2  1  0
  2  3  1  0
  2  4  1  0
  2  5  1  0
  5  6  1  0
  5  7  1  0
  5  8  1  0
  8  9  1  0
  8 10  1  0
  8 11  1  0
 11 12  2  0
 12 13  1  0
 13 14  2  0
 14 15  1  0
 15 16  1  0
 16 17  1  0
 17 18  1  0
 18 19  1  0
 19 20  1  0
 20 21  2  0
 21 22  1  0
 22 23  2  0
 23 24  1  0
 24 25  1  0
 24 26  1  0
 24 27  1  0
 27 28  1  0
 27 29  1  0
 27 30  1  0
 30 31  1  0
 30 32  1  0
 30 33  1  0
 17 34  1  0
 34 35  1  0
 35 36  1  0
 15 11  1  0
 36 17  1  0
 23 19  1  0
M  END
$$$$

     RDKit          2D

 20 20  0  0  0  0  0  0  0  0999 V2000
    3.0000   -2.5981    0.0000 O   0  0  0  0  0  0  0  0  0  0  0  0
    3.7500   -1.2990    0.0000 C   0  0  0  0  0  0  0  0  0  0  0  0
    5.2500   -1.2990    0.0000 N   0  0  0  0  0  0  0  0  0  0  0  0
    6.0000   -2.5981    0.0000 C   0  0  0  0  0  0  0  0  0  0  0  0
    5.2500   -3.8971    0.0000 O   0  0  0  0  0  0  0  0  0  0  0  0
    7.5000   -2.5981    0.0000 C   0  0  0  0  0  0  0  0  0  0  0  0
    7.5000   -4.0981    0.0000 F   0  0  0  0  0  0  0  0  0  0  0  0
    7.5000   -1.0981    0.0000 F   0  0  0  0  0  0  0  0  0  0  0  0
    9.0000   -2.5981    0.0000 C   0  0  0  0  0  0  0  0  0  0  0  0
   10.5000   -2.5981    0.0000 F   0  0  0  0  0  0  0  0  0  0  0  0
    9.0000   -1.0981    0.0000 F   0  0  0  0  0  0  0  0  0  0  0  0
    9.0000   -4.0981    0.0000 F   0  0  0  0  0  0  0  0  0  0  0  0
    3.0000    0.0000    0.0000 N   0  0  0  0  0  0  0  0  0  0  0  0
    1.5000    0.0000    0.0000 C   0  0  0  0  0  0  0  0  0  0  0  0
    0.7500   -1.2990    0.0000 C   0  0  0  0  0  0  0  0  0  0  0  0
   -0.7500   -1.2990    0.0000 C   0  0  0  0  0  0  0  0  0  0  0  0
   -1.5000    0.0000    0.0000 C   0  0  0  0  0  0  0  0  0  0  0  0
   -3.0000    0.0000    0.0000 Cl  0  0  0  0  0  0  0  0  0  0  0  0
   -0.7500    1.2990    0.0000 C   0  0  0  0  0  0  0  0  0  0  0  0
    0.7500    1.2990    0.0000 C   0  0  0  0  0  0  0  0  0  0  0  0
  1  2  2  0
  2  3  1  0
  3  4  1  0
  4  5  2  0
  4  6  1  0
  6  7  1  0
  6  8  1  0
  6  9  1  0
  9 10  1  0
  9 11  1  0
  9 12  1  0
  2 13  1  0
 13 14  1  0
 14 15  2  0
 15 16  1  0
 16 17  2  0
 17 18  1  0
 17 19  1  0
 19 20  2  0
 20 14  1  0
M  END
$$$$

     RDKit          2D

 34 36  0  0  0  0  0  0  0  0999 V2000
    3.0000   -5.1962    0.0000 F   0  0  0  0  0  0  0  0  0  0  0  0
    2.2500   -3.8971    0.0000 C   0  0  0  0  0  0  0  0  0  0  0  0
    3.5490   -3.1471    0.0000 F   0  0  0  0  0  0  0  0  0  0  0  0
    1.5426   -4.4302    0.0000 F   0  0  0  0  0  0  0  0  0  0  0  0
    1.5000   -2.5981    0.0000 C   0  0  0  0  0  0  0  0  0  0  0  0
    2.7990   -1.8481    0.0000 O   0  0  0  0  0  0  0  0  0  0  0  0
    2.7990   -0.3481    0.0000 C   0  0  0  0  0  0  0  0  0  0  0  0
    4.0981    0.4019    0.0000 C   0  0  0  0  0  0  0  0  0  0  0  0
    5.5981    0.4019    0.0000 C   0  0  0  0  0  0  0  0  0  0  0  0
    4.8481    1.7010    0.0000 O   0  0  0  0  0  0  0  0  0  0  0  0
    0.7500   -1.2990    0.0000 C   0  0  0  0  0  0  0  0  0  0  0  0
    1.5000    0.0000    0.0000 C   0  0  0  0  0  0  0  0  0  0  0  0
    0.7500    1.2990    0.0000 C   0  0  0  0  0  0  0  0  0  0  0  0
   -0.7500    1.2990    0.0000 C   0  0  0  0  0  0  0  0  0  0  0  0
   -1.5000    0.0000    0.0000 C   0  0  0  0  0  0  0  0  0  0  0  0
   -3.0000    0.0000    0.0000 C   0  0  0  0  0  0  0  0  0  0  0  0
   -3.0000   -1.5000    0.0000 O   0  0  0  0  0  0  0  0  0  0  0  0
   -4.2990   -2.2500    0.0000 C   0  0  0  0  0  0  0  0  0  0  0  0
   -4.2990   -3.7500    0.0000 C   0  0  0  0  0  0  0  0  0  0  0  0
   -3.5490   -5.0490    0.0000 C   0  0  0  0  0  0  0  0  0  0  0  0
   -5.0490   -5.0490    0.0000 O   0  0  0  0  0  0  0  0  0  0  0  0
   -4.5000    0.0000    0.0000 C   0  0  0  0  0  0  0  0  0  0  0  0
   -6.0000   -0.0000    0.0000 F   0  0  0  0  0  0  0  0  0  0  0  0
   -4.8630   -1.4554    0.0000 F   0  0  0  0  0  0  0  0  0  0  0  0
   -4.6080    0.8791    0.0000 F   0  0  0  0  0  0  0  0  0  0  0  0
   -3.0000    1.5000    0.0000 C   0  0  0  0  0  0  0  0  0  0  0  0
   -3.0000    3.0000    0.0000 F   0  0  0  0  0  0  0  0  0  0  0  0
   -3.8791    1.6080    0.0000 F   0  0  0  0  0  0  0  0  0  0  0  0
   -1.5446    1.8630    0.0000 F   0  0  0  0  0  0  0  0  0  0  0  0
   -0.7500   -1.2990    0.0000 C   0  0  0  0  0  0  0  0  0  0  0  0
    0.2010   -3.3481    0.0000 C   0  0  0  0  0  0  0  0  0  0  0  0
   -1.0981   -4.0981    0.0000 F   0  0  0  0  0  0  0  0  0  0  0  0
    0.5470   -4.1634    0.0000 F   0  0  0  0  0  0  0  0  0  0  0  0
   -0.8411   -2.2691    0.0000 F   0  0  0  0  0  0  0  0  0  0  0  0
  1  2  1  0
  2  3  1  0
  2  4  1  0
  2  5  1  0
  5  6  1  0
  6  7  1  0
  7  8  1  0
  8  9  1  0
  9 10  1  0
  5 11  1  0
 11 12  2  0
 12 13  1  0
 13 14  2  0
 14 15  1  0
 15 16  1  0
 16 17  1  0
 17 18  1  0
 18 19  1  0
 19 20  1  0
 20 21  1  0
 16 22  1  0
 22 23  1  0
 22 24  1  0
 22 25  1  0
 16 26  1  0
 26 27  1  0
 26 28  1  0
 26 29  1  0
 15 30  2  0
  5 31  1  0
 31 32  1  0
 31 33  1  0
 31 34  1  0
 10  8  1  0
 30 11  1  0
 21 19  1  0
M  END
$$$$

     RDKit          2D

 30 31  0  0  0  0  0  0  0  0999 V2000
    3.0000   -5.1962    0.0000 O   0  0  0  0  0  0  0  0  0  0  0  0
    1.5000   -5.1962    0.0000 C   0  0  0  0  0  0  0  0  0  0  0  0
    0.7500   -3.8971    0.0000 N   0  0  0  0  0  0  0  0  0  0  0  0
    1.5000   -2.5981    0.0000 C   0  0  0  0  0  0  0  0  0  0  0  0
    3.0000   -2.5981    0.0000 O   0  0  0  0  0  0  0  0  0  0  0  0
    0.7500   -1.2990    0.0000 C   0  0  0  0  0  0  0  0  0  0  0  0
    1.5000    0.0000    0.0000 C   0  0  0  0  0  0  0  0  0  0  0  0
    3.0000    0.0000    0.0000 F   0  0  0  0  0  0  0  0  0  0  0  0
    0.7500    1.2990    0.0000 C   0  0  0  0  0  0  0  0  0  0  0  0
   -0.7500    1.2990    0.0000 C   0  0  0  0  0  0  0  0  0  0  0  0
   -1.5000    0.0000    0.0000 C   0  0  0  0  0  0  0  0  0  0  0  0
   -0.7500   -1.2990    0.0000 C   0  0  0  0  0  0  0  0  0  0  0  0
   -1.5000   -2.5981    0.0000 F   0  0  0  0  0  0  0  0  0  0  0  0
    0.7500   -6.4952    0.0000 N   0  0  0  0  0  0  0  0  0  0  0  0
    1.5000   -7.7942    0.0000 C   0  0  0  0  0  0  0  0  0  0  0  0
    0.7500   -9.0933    0.0000 C   0  0  0  0  0  0  0  0  0  0  0  0
    1.5000  -10.3923    0.0000 C   0  0  0  0  0  0  0  0  0  0  0  0
    3.0000  -10.3923    0.0000 C   0  0  0  0  0  0  0  0  0  0  0  0
    3.7500  -11.6913    0.0000 C   0  0  0  0  0  0  0  0  0  0  0  0
    5.0490  -10.9413    0.0000 O   0  0  0  0  0  0  0  0  0  0  0  0
    4.5000  -12.9904    0.0000 C   0  0  0  0  0  0  0  0  0  0  0  0
    5.2500  -14.2894    0.0000 F   0  0  0  0  0  0  0  0  0  0  0  0
    5.7990  -12.2404    0.0000 F   0  0  0  0  0  0  0  0  0  0  0  0
    3.7926  -13.5234    0.0000 F   0  0  0  0  0  0  0  0  0  0  0  0
    2.4510  -12.4413    0.0000 C   0  0  0  0  0  0  0  0  0  0  0  0
    1.1519  -13.1913    0.0000 F   0  0  0  0  0  0  0  0  0  0  0  0
    2.7970  -13.2567    0.0000 F   0  0  0  0  0  0  0  0  0  0  0  0
    1.4089  -11.3624    0.0000 F   0  0  0  0  0  0  0  0  0  0  0  0
    3.7500   -9.0933    0.0000 C   0  0  0  0  0  0  0  0  0  0  0  0
    3.0000   -7.7942    0.0000 C   0  0  0  0  0  0  0  0  0  0  0  0
  1  2  2  0
  2  3  1  0
  3  4  1  0
  4  5  2  0
  4  6  1  0
  6  7  2  0
  7  8  1  0
  7  9  1  0
  9 10  2  0
 10 11  1  0
 11 12  2  0
 12 13  1  0
  2 14  1  0
 14 15  1  0
 15 16  2  0
 16 17  1  0
 17 18  2  0
 18 19  1  0
 19 20  1  0
 19 21  1  0
 21 22  1  0
 21 23  1  0
 21 24  1  0
 19 25  1  0
 25 26  1  0
 25 27  1  0
 25 28  1  0
 18 29  1  0
 29 30  2  0
 12  6  1  0
 30 15  1  0
M  END
$$$$

     RDKit          2D

 18 19  0  0  0  0  0  0  0  0999 V2000
   -2.7135   -5.3237    0.0000 F   0  0  0  0  0  0  0  0  0  0  0  0
   -1.9635   -4.0247    0.0000 C   0  0  0  0  0  0  0  0  0  0  0  0
   -2.6973   -3.7132    0.0000 F   0  0  0  0  0  0  0  0  0  0  0  0
   -0.6645   -4.7747    0.0000 F   0  0  0  0  0  0  0  0  0  0  0  0
   -1.2135   -2.7256    0.0000 C   0  0  0  0  0  0  0  0  0  0  0  0
   -2.5838   -2.1155    0.0000 C   0  0  0  0  0  0  0  0  0  0  0  0
   -3.9542   -1.5054    0.0000 F   0  0  0  0  0  0  0  0  0  0  0  0
   -2.9944   -2.7988    0.0000 F   0  0  0  0  0  0  0  0  0  0  0  0
   -1.9737   -0.7452    0.0000 F   0  0  0  0  0  0  0  0  0  0  0  0
   -0.0000   -3.6073    0.0000 O   0  0  0  0  0  0  0  0  0  0  0  0
    1.2135   -2.7256    0.0000 I   0  0  0  0  0  0  0  0  0  0  0  0
    2.6401   -3.1891    0.0000 Cl  0  0  0  0  0  0  0  0  0  0  0  0
    0.7500   -1.2990    0.0000 C   0  0  0  0  0  0  0  0  0  0  0  0
    1.5000    0.0000    0.0000 C   0  0  0  0  0  0  0  0  0  0  0  0
    0.7500    1.2990    0.0000 C   0  0  0  0  0  0  0  0  0  0  0  0
   -0.7500    1.2990    0.0000 C   0  0  0  0  0  0  0  0  0  0  0  0
   -1.5000    0.0000    0.0000 C   0  0  0  0  0  0  0  0  0  0  0  0
   -0.7500   -1.2990    0.0000 C   0  0  0  0  0  0  0  0  0  0  0  0
  1  2  1  0
  2  3  1  0
  2  4  1  0
  2  5  1  0
  5  6  1  0
  6  7  1  0
  6  8  1  0
  6  9  1  0
  5 10  1  0
 10 11  1  0
 11 12  1  0
 11 13  1  0
 13 14  2  0
 14 15  1  0
 15 16  2  0
 16 17  1  0
 17 18  2  0
 18  5  1  0
 18 13  1  0
M  END
$$$$

     RDKit          2D

 28 28  0  0  0  0  0  0  0  0999 V2000
    4.1979    2.4028    0.0000 C   0  0  0  0  0  0  0  0  0  0  0  0
    3.0000    1.5000    0.0000 O   0  0  0  0  0  0  0  0  0  0  0  0
    3.0000    0.0000    0.0000 C   0  0  0  0  0  0  0  0  0  0  0  0
    1.5000    0.0000    0.0000 C   0  0  0  0  0  0  0  0  0  0  0  0
    0.7500   -1.2990    0.0000 C   0  0  0  0  0  0  0  0  0  0  0  0
   -0.7500   -1.2990    0.0000 C   0  0  0  0  0  0  0  0  0  0  0  0
   -1.5000    0.0000    0.0000 C   0  0  0  0  0  0  0  0  0  0  0  0
   -0.7500    1.2990    0.0000 C   0  0  0  0  0  0  0  0  0  0  0  0
   -1.5000    2.5981    0.0000 C   0  0  0  0  0  0  0  0  0  0  0  0
   -2.7990    1.8481    0.0000 O   0  0  0  0  0  0  0  0  0  0  0  0
   -2.7990    0.3481    0.0000 C   0  0  0  0  0  0  0  0  0  0  0  0
   -2.2500    3.8971    0.0000 C   0  0  0  0  0  0  0  0  0  0  0  0
   -3.0000    5.1962    0.0000 F   0  0  0  0  0  0  0  0  0  0  0  0
   -3.5490    3.1471    0.0000 F   0  0  0  0  0  0  0  0  0  0  0  0
   -1.5426    4.4302    0.0000 F   0  0  0  0  0  0  0  0  0  0  0  0
   -0.2010    3.3481    0.0000 C   0  0  0  0  0  0  0  0  0  0  0  0
    1.0981    4.0981    0.0000 F   0  0  0  0  0  0  0  0  0  0  0  0
   -0.5470    4.1634    0.0000 F   0  0  0  0  0  0  0  0  0  0  0  0
    0.8411    2.2691    0.0000 F   0  0  0  0  0  0  0  0  0  0  0  0
    0.7500    1.2990    0.0000 C   0  0  0  0  0  0  0  0  0  0  0  0
    4.5000    0.0000    0.0000 C   0  0  0  0  0  0  0  0  0  0  0  0
    6.0000    0.0000    0.0000 F   0  0  0  0  0  0  0  0  0  0  0  0
    4.6828    1.4888    0.0000 F   0  0  0  0  0  0  0  0  0  0  0  0
    4.6080   -0.8791    0.0000 F   0  0  0  0  0  0  0  0  0  0  0  0
    3.0000   -1.5000    0.0000 C   0  0  0  0  0  0  0  0  0  0  0  0
    3.0000   -3.0000    0.0000 F   0  0  0  0  0  0  0  0  0  0  0  0
    3.8791   -1.6080    0.0000 F   0  0  0  0  0  0  0  0  0  0  0  0
    1.5446   -1.8630    0.0000 F   0  0  0  0  0  0  0  0  0  0  0  0
  1  2  1  0
  2  3  1  0
  3  4  1  0
  4  5  2  0
  5  6  1  0
  6  7  2  0
  7  8  1  0
  8  9  1  0
  9 10  1  0
 10 11  1  0
  9 12  1  0
 12 13  1  0
 12 14  1  0
 12 15  1  0
  9 16  1  0
 16 17  1  0
 16 18  1  0
 16 19  1  0
  8 20  2  0
  3 21  1  0
 21 22  1  0
 21 23  1  0
 21 24  1  0
  3 25  1  0
 25 26  1  0
 25 27  1  0
 25 28  1  0
 20  4  1  0
M  END
$$$$

     RDKit          2D

 41 42  0  0  0  0  0  0  0  0999 V2000
    3.5054    2.0074    0.0000 F   0  0  0  0  0  0  0  0  0  0  0  0
    2.3907    1.0037    0.0000 C   0  0  0  0  0  0  0  0  0  0  0  0
    1.3870    2.1184    0.0000 F   0  0  0  0  0  0  0  0  0  0  0  0
    2.9923    0.4807    0.0000 F   0  0  0  0  0  0  0  0  0  0  0  0
    1.2760    0.0000    0.0000 C   0  0  0  0  0  0  0  0  0  0  0  0
    2.3907   -1.0037    0.0000 C   0  0  0  0  0  0  0  0  0  0  0  0
    3.6194   -1.8640    0.0000 F   0  0  0  0  0  0  0  0  0  0  0  0
    2.9923   -0.4807    0.0000 F   0  0  0  0  0  0  0  0  0  0  0  0
    1.6866   -2.3282    0.0000 F   0  0  0  0  0  0  0  0  0  0  0  0
    0.3943    1.2135    0.0000 O   0  0  0  0  0  0  0  0  0  0  0  0
   -1.0323    0.7500    0.0000 Te  0  0  0  0  0  4  0  0  0  0  0  0
   -1.0323   -0.7500    0.0000 O   0  0  0  0  0  0  0  0  0  0  0  0
    0.3943   -1.2135    0.0000 C   0  0  0  0  0  0  0  0  0  0  0  0
    1.6933   -1.9635    0.0000 C   0  0  0  0  0  0  0  0  0  0  0  0
    2.8913   -2.8663    0.0000 F   0  0  0  0  0  0  0  0  0  0  0  0
    1.1073   -3.3443    0.0000 F   0  0  0  0  0  0  0  0  0  0  0  0
    2.7354   -0.8846    0.0000 F   0  0  0  0  0  0  0  0  0  0  0  0
   -0.2158   -2.5838    0.0000 C   0  0  0  0  0  0  0  0  0  0  0  0
   -0.8259   -3.9542    0.0000 F   0  0  0  0  0  0  0  0  0  0  0  0
    1.0699   -3.3564    0.0000 F   0  0  0  0  0  0  0  0  0  0  0  0
   -1.5861   -1.9737    0.0000 F   0  0  0  0  0  0  0  0  0  0  0  0
   -2.4589    0.2865    0.0000 O   0  0  0  0  0  0  0  0  0  0  0  0
   -3.3405    1.5000    0.0000 C   0  0  0  0  0  0  0  0  0  0  0  0
   -4.4553    0.4963    0.0000 C   0  0  0  0  0  0  0  0  0  0  0  0
   -5.5700   -0.5074    0.0000 F   0  0  0  0  0  0  0  0  0  0  0  0
   -5.5874    1.4804    0.0000 F   0  0  0  0  0  0  0  0  0  0  0  0
   -3.4516   -0.6184    0.0000 F   0  0  0  0  0  0  0  0  0  0  0  0
   -4.4553    2.5037    0.0000 C   0  0  0  0  0  0  0  0  0  0  0  0
   -5.6840    3.3640    0.0000 F   0  0  0  0  0  0  0  0  0  0  0  0
   -3.7511    3.8282    0.0000 F   0  0  0  0  0  0  0  0  0  0  0  0
   -5.5874    1.5196    0.0000 F   0  0  0  0  0  0  0  0  0  0  0  0
   -2.4589    2.7135    0.0000 C   0  0  0  0  0  0  0  0  0  0  0  0
   -3.7579    3.4635    0.0000 C   0  0  0  0  0  0  0  0  0  0  0  0
   -4.9558    4.3663    0.0000 F   0  0  0  0  0  0  0  0  0  0  0  0
   -3.1718    4.8443    0.0000 F   0  0  0  0  0  0  0  0  0  0  0  0
   -4.8000    2.3846    0.0000 F   0  0  0  0  0  0  0  0  0  0  0  0
   -1.8488    4.0838    0.0000 C   0  0  0  0  0  0  0  0  0  0  0  0
   -1.2387    5.4542    0.0000 F   0  0  0  0  0  0  0  0  0  0  0  0
   -3.1345    4.8564    0.0000 F   0  0  0  0  0  0  0  0  0  0  0  0
   -0.4784    3.4737    0.0000 F   0  0  0  0  0  0  0  0  0  0  0  0
   -1.0323    2.2500    0.0000 O   0  0  0  0  0  0  0  0  0  0  0  0
  1  2  1  0
  2  3  1  0
  2  4  1  0
  2  5  1  0
  5  6  1  0
  6  7  1  0
  6  8  1  0
  6  9  1  0
  5 10  1  0
 10 11  1  0
 11 12  1  0
 12 13  1  0
 13 14  1  0
 14 15  1  0
 14 16  1  0
 14 17  1  0
 13 18  1  0
 18 19  1  0
 18 20  1  0
 18 21  1  0
 11 22  1  0
 22 23  1  0
 23 24  1  0
 24 25  1  0
 24 26  1  0
 24 27  1  0
 23 28  1  0
 28 29  1  0
 28 30  1  0
 28 31  1  0
 23 32  1  0
 32 33  1  0
 33 34  1  0
 33 35  1  0
 33 36  1  0
 32 37  1  0
 37 38  1  0
 37 39  1  0
 37 40  1  0
 32 41  1  0
 13  5  1  0
 41 11  1  0
M  END
$$$$

     RDKit          2D

 58 54  0  0  0  0  0  0  0  0999 V2000
    0.0000    0.0000    0.0000 C   0  0  0  0  0  0  0  0  0  0  0  0
    1.2990    0.7500    0.0000 C   0  0  0  0  0  0  0  0  0  0  0  0
    2.5981    1.5000    0.0000 C   0  0  0  0  0  0  0  0  0  0  0  0
    2.0490   -0.5490    0.0000 C   0  0  0  0  0  0  0  0  0  0  0  0
    0.5490    2.0490    0.0000 C   0  0  0  0  0  0  0  0  0  0  0  0
   -0.9510    2.0490    0.0000 O   0  0  0  0  0  0  0  0  0  0  0  0
    1.2990    3.3481    0.0000 C   0  0  0  0  0  0  0  0  0  0  0  0
    0.5490    4.6471    0.0000 C   0  0  0  0  0  0  0  0  0  0  0  0
   -0.9510    4.6471    0.0000 O   0  0  0  0  0  0  0  0  0  0  0  0
    1.2990    5.9462    0.0000 C   0  0  0  0  0  0  0  0  0  0  0  0
    0.0000    6.6962    0.0000 F   0  0  0  0  0  0  0  0  0  0  0  0
    2.5981    5.1962    0.0000 F   0  0  0  0  0  0  0  0  0  0  0  0
    2.0490    7.2452    0.0000 C   0  0  0  0  0  0  0  0  0  0  0  0
    3.3481    6.4952    0.0000 F   0  0  0  0  0  0  0  0  0  0  0  0
    0.7500    7.9952    0.0000 F   0  0  0  0  0  0  0  0  0  0  0  0
    2.7990    8.5442    0.0000 C   0  0  0  0  0  0  0  0  0  0  0  0
    3.5490    9.8433    0.0000 F   0  0  0  0  0  0  0  0  0  0  0  0
    1.5000    9.2942    0.0000 F   0  0  0  0  0  0  0  0  0  0  0  0
    4.0981    7.7942    0.0000 F   0  0  0  0  0  0  0  0  0  0  0  0
    6.0490    0.0000    0.0000 C   0  0  0  0  0  0  0  0  0  0  0  0
    7.3481    0.7500    0.0000 C   0  0  0  0  0  0  0  0  0  0  0  0
    8.6471    1.5000    0.0000 C   0  0  0  0  0  0  0  0  0  0  0  0
    8.0981   -0.5490    0.0000 C   0  0  0  0  0  0  0  0  0  0  0  0
    6.5981    2.0490    0.0000 C   0  0  0  0  0  0  0  0  0  0  0  0
    5.0981    2.0490    0.0000 O   0  0  0  0  0  0  0  0  0  0  0  0
    7.3481    3.3481    0.0000 C   0  0  0  0  0  0  0  0  0  0  0  0
    6.5981    4.6471    0.0000 C   0  0  0  0  0  0  0  0  0  0  0  0
    5.0981    4.6471    0.0000 O   0  0  0  0  0  0  0  0  0  0  0  0
    7.3481    5.9462    0.0000 C   0  0  0  0  0  0  0  0  0  0  0  0
    6.0490    6.6962    0.0000 F   0  0  0  0  0  0  0  0  0  0  0  0
    8.6471    5.1962    0.0000 F   0  0  0  0  0  0  0  0  0  0  0  0
    8.0981    7.2452    0.0000 C   0  0  0  0  0  0  0  0  0  0  0  0
    9.3971    6.4952    0.0000 F   0  0  0  0  0  0  0  0  0  0  0  0
    6.7990    7.9952    0.0000 F   0  0  0  0  0  0  0  0  0  0  0  0
    8.8481    8.5442    0.0000 C   0  0  0  0  0  0  0  0  0  0  0  0
    9.5981    9.8433    0.0000 F   0  0  0  0  0  0  0  0  0  0  0  0
    7.5490    9.2942    0.0000 F   0  0  0  0  0  0  0  0  0  0  0  0
   10.1471    7.7942    0.0000 F   0  0  0  0  0  0  0  0  0  0  0  0
    0.0000   11.3923    0.0000 C   0  0  0  0  0  0  0  0  0  0  0  0
    1.2990   12.1423    0.0000 C   0  0  0  0  0  0  0  0  0  0  0  0
    2.5981   12.8923    0.0000 C   0  0  0  0  0  0  0  0  0  0  0  0
    2.0490   10.8433    0.0000 C   0  0  0  0  0  0  0  0  0  0  0  0
    0.5490   13.4413    0.0000 C   0  0  0  0  0  0  0  0  0  0  0  0
   -0.9510   13.4413    0.0000 O   0  0  0  0  0  0  0  0  0  0  0  0
    1.2990   14.7404    0.0000 C   0  0  0  0  0  0  0  0  0  0  0  0
    0.5490   16.0394    0.0000 C   0  0  0  0  0  0  0  0  0  0  0  0
   -0.9510   16.0394    0.0000 O   0  0  0  0  0  0  0  0  0  0  0  0
    1.2990   17.3385    0.0000 C   0  0  0  0  0  0  0  0  0  0  0  0
    0.0000   18.0885    0.0000 F   0  0  0  0  0  0  0  0  0  0  0  0
    2.5981   16.5885    0.0000 F   0  0  0  0  0  0  0  0  0  0  0  0
    2.0490   18.6375    0.0000 C   0  0  0  0  0  0  0  0  0  0  0  0
    3.3481   17.8875    0.0000 F   0  0  0  0  0  0  0  0  0  0  0  0
    0.7500   19.3875    0.0000 F   0  0  0  0  0  0  0  0  0  0  0  0
    2.7990   19.9365    0.0000 C   0  0  0  0  0  0  0  0  0  0  0  0
    3.5490   21.2356    0.0000 F   0  0  0  0  0  0  0  0  0  0  0  0
    1.5000   20.6865    0.0000 F   0  0  0  0  0  0  0  0  0  0  0  0
    4.0981   19.1865    0.0000 F   0  0  0  0  0  0  0  0  0  0  0  0
   11.1471    0.0000    0.0000 Co  0  0  0  0  0 15  0  0  0  0  0  0
  1  2  1  0
  2  3  1  0
  2  4  1  0
  2  5  1  0
  5  6  2  0
  5  7  1  0
  7  8  1  0
  8  9  2  0
  8 10  1  0
 10 11  1  0
 10 12  1  0
 10 13  1  0
 13 14  1  0
 13 15  1  0
 13 16  1  0
 16 17  1  0
 16 18  1  0
 16 19  1  0
 20 21  1  0
 21 22  1  0
 21 23  1  0
 21 24  1  0
 24 25  2  0
 24 26  1  0
 26 27  1  0
 27 28  2  0
 27 29  1  0
 29 30  1  0
 29 31  1  0
 29 32  1  0
 32 33  1  0
 32 34  1  0
 32 35  1  0
 35 36  1  0
 35 37  1  0
 35 38  1  0
 39 40  1  0
 40 41  1  0
 40 42  1  0
 40 43  1  0
 43 44  2  0
 43 45  1  0
 45 46  1  0
 46 47  2  0
 46 48  1  0
 48 49  1  0
 48 50  1  0
 48 51  1  0
 51 52  1  0
 51 53  1  0
 51 54  1  0
 54 55  1  0
 54 56  1  0
 54 57  1  0
M  END
$$$$

     RDKit          2D

 26 26  0  0  0  0  0  0  0  0999 V2000
    3.7500   -1.2990    0.0000 C   0  0  0  0  0  0  0  0  0  0  0  0
    3.0000   -0.0000    0.0000 C   0  0  0  0  0  0  0  0  0  0  0  0
    3.7500    1.2990    0.0000 C   0  0  0  0  0  0  0  0  0  0  0  0
    1.5000   -0.0000    0.0000 C   0  0  0  0  0  0  0  0  0  0  0  0
    0.7500   -1.2990    0.0000 C   0  0  0  0  0  0  0  0  0  0  0  0
   -0.7500   -1.2990    0.0000 C   0  0  0  0  0  0  0  0  0  0  0  0
   -1.5000   -0.0000    0.0000 C   0  0  0  0  0  0  0  0  0  0  0  0
   -3.0000    0.0000    0.0000 O   0  0  0  0  0  0  0  0  0  0  0  0
   -3.7500    1.2990    0.0000 S   0  0  0  0  0  0  0  0  0  0  0  0
   -2.4510    2.0490    0.0000 O   0  0  0  0  0  0  0  0  0  0  0  0
   -4.3866    0.8193    0.0000 O   0  0  0  0  0  0  0  0  0  0  0  0
   -4.5000    2.5981    0.0000 C   0  0  0  0  0  0  0  0  0  0  0  0
   -3.2010    3.3481    0.0000 F   0  0  0  0  0  0  0  0  0  0  0  0
   -5.2500    3.8971    0.0000 F   0  0  0  0  0  0  0  0  0  0  0  0
   -5.7990    1.8481    0.0000 C   0  0  0  0  0  0  0  0  0  0  0  0
   -5.4530    1.0327    0.0000 F   0  0  0  0  0  0  0  0  0  0  0  0
   -6.5490    3.1471    0.0000 F   0  0  0  0  0  0  0  0  0  0  0  0
   -7.0981    1.0981    0.0000 C   0  0  0  0  0  0  0  0  0  0  0  0
   -7.8481    2.3971    0.0000 F   0  0  0  0  0  0  0  0  0  0  0  0
   -6.3481   -0.2010    0.0000 F   0  0  0  0  0  0  0  0  0  0  0  0
   -8.3971    0.3481    0.0000 C   0  0  0  0  0  0  0  0  0  0  0  0
   -9.6962   -0.4019    0.0000 F   0  0  0  0  0  0  0  0  0  0  0  0
   -9.1471    1.6471    0.0000 F   0  0  0  0  0  0  0  0  0  0  0  0
   -7.6471   -0.9510    0.0000 F   0  0  0  0  0  0  0  0  0  0  0  0
   -0.7500    1.2990    0.0000 C   0  0  0  0  0  0  0  0  0  0  0  0
    0.7500    1.2990    0.0000 C   0  0  0  0  0  0  0  0  0  0  0  0
  1  2  1  0
  2  3  1  0
  2  4  1  0
  4  5  2  0
  5  6  1  0
  6  7  2  0
  7  8  1  0
  8  9  1  0
  9 10  2  0
  9 11  2  0
  9 12  1  0
 12 13  1  0
 12 14  1  0
 12 15  1  0
 15 16  1  0
 15 17  1  0
 15 18  1  0
 18 19  1  0
 18 20  1  0
 18 21  1  0
 21 22  1  0
 21 23  1  0
 21 24  1  0
  7 25  1  0
 25 26  2  0
 26  4  1  0
M  END
$$$$

     RDKit          2D

 23 22  0  0  0  0  0  0  0  0999 V2000
    0.0000    0.0000    0.0000 C   0  0  0  0  0  0  0  0  0  0  0  0
    1.2990    0.7500    0.0000 O   0  0  0  0  0  0  0  0  0  0  0  0
    2.5981   -0.0000    0.0000 C   0  0  0  0  0  0  0  0  0  0  0  0
    2.5981   -1.5000    0.0000 O   0  0  0  0  0  0  0  0  0  0  0  0
    3.8971    0.7500    0.0000 C   0  0  0  0  0  0  0  0  0  0  0  0
    4.6471   -0.5490    0.0000 F   0  0  0  0  0  0  0  0  0  0  0  0
    3.1471    2.0490    0.0000 F   0  0  0  0  0  0  0  0  0  0  0  0
    5.1962    1.5000    0.0000 C   0  0  0  0  0  0  0  0  0  0  0  0
    4.4462    2.7990    0.0000 F   0  0  0  0  0  0  0  0  0  0  0  0
    5.9462    0.2010    0.0000 F   0  0  0  0  0  0  0  0  0  0  0  0
    6.4952    2.2500    0.0000 C   0  0  0  0  0  0  0  0  0  0  0  0
    7.2452    0.9510    0.0000 F   0  0  0  0  0  0  0  0  0  0  0  0
    5.7452    3.5490    0.0000 F   0  0  0  0  0  0  0  0  0  0  0  0
    7.7942    3.0000    0.0000 C   0  0  0  0  0  0  0  0  0  0  0  0
    7.0442    4.2990    0.0000 F   0  0  0  0  0  0  0  0  0  0  0  0
    8.5442    1.7010    0.0000 F   0  0  0  0  0  0  0  0  0  0  0  0
    9.0933    3.7500    0.0000 C   0  0  0  0  0  0  0  0  0  0  0  0
    9.8433    2.4510    0.0000 F   0  0  0  0  0  0  0  0  0  0  0  0
    8.3433    5.0490    0.0000 F   0  0  0  0  0  0  0  0  0  0  0  0
   10.3923    4.5000    0.0000 C   0  0  0  0  0  0  0  0  0  0  0  0
   11.6913    5.2500    0.0000 F   0  0  0  0  0  0  0  0  0  0  0  0
    9.6423    5.7990    0.0000 F   0  0  0  0  0  0  0  0  0  0  0  0
   11.1423    3.2010    0.0000 F   0  0  0  0  0  0  0  0  0  0  0  0
  1  2  1  0
  2  3  1  0
  3  4  2  0
  3  5  1  0
  5  6  1  0
  5  7  1  0
  5  8  1  0
  8  9  1  0
  8 10  1  0
  8 11  1  0
 11 12  1  0
 11 13  1  0
 11 14  1  0
 14 15  1  0
 14 16  1  0
 14 17  1  0
 17 18  1  0
 17 19  1  0
 17 20  1  0
 20 21  1  0
 20 22  1  0
 20 23  1  0
M  END
$$$$

     RDKit          2D

 31 30  0  0  0  0  0  0  0  0999 V2000
    0.0000    0.0000    0.0000 C   0  0  0  0  0  0  0  0  0  0  0  0
    1.2990    0.7500    0.0000 C   0  0  0  0  0  0  0  0  0  0  0  0
    2.5981   -0.0000    0.0000 C   0  0  0  0  0  0  0  0  0  0  0  0
    3.8971    0.7500    0.0000 O   0  0  0  0  0  0  0  0  0  0  0  0
    5.1962   -0.0000    0.0000 C   0  0  0  0  0  0  0  0  0  0  0  0
    5.1962   -1.5000    0.0000 O   0  0  0  0  0  0  0  0  0  0  0  0
    6.4952    0.7500    0.0000 C   0  0  0  0  0  0  0  0  0  0  0  0
    7.2452   -0.5490    0.0000 F   0  0  0  0  0  0  0  0  0  0  0  0
    5.7452    2.0490    0.0000 F   0  0  0  0  0  0  0  0  0  0  0  0
    7.7942    1.5000    0.0000 C   0  0  0  0  0  0  0  0  0  0  0  0
    7.0442    2.7990    0.0000 F   0  0  0  0  0  0  0  0  0  0  0  0
    8.5442    0.2010    0.0000 F   0  0  0  0  0  0  0  0  0  0  0  0
    9.0933    2.2500    0.0000 C   0  0  0  0  0  0  0  0  0  0  0  0
    9.8433    0.9510    0.0000 F   0  0  0  0  0  0  0  0  0  0  0  0
    8.3433    3.5490    0.0000 F   0  0  0  0  0  0  0  0  0  0  0  0
   10.3923    3.0000    0.0000 C   0  0  0  0  0  0  0  0  0  0  0  0
    9.6423    4.2990    0.0000 F   0  0  0  0  0  0  0  0  0  0  0  0
   11.1423    1.7010    0.0000 F   0  0  0  0  0  0  0  0  0  0  0  0
   11.6913    3.7500    0.0000 C   0  0  0  0  0  0  0  0  0  0  0  0
   12.4413    2.4510    0.0000 F   0  0  0  0  0  0  0  0  0  0  0  0
   10.9413    5.0490    0.0000 F   0  0  0  0  0  0  0  0  0  0  0  0
   12.9904    4.5000    0.0000 C   0  0  0  0  0  0  0  0  0  0  0  0
   12.2404    5.7990    0.0000 F   0  0  0  0  0  0  0  0  0  0  0  0
   13.7404    3.2010    0.0000 F   0  0  0  0  0  0  0  0  0  0  0  0
   14.2894    5.2500    0.0000 C   0  0  0  0  0  0  0  0  0  0  0  0
   15.0394    3.9510    0.0000 F   0  0  0  0  0  0  0  0  0  0  0  0
   13.5394    6.5490    0.0000 F   0  0  0  0  0  0  0  0  0  0  0  0
   15.5885    6.0000    0.0000 C   0  0  0  0  0  0  0  0  0  0  0  0
   16.8875    6.7500    0.0000 F   0  0  0  0  0  0  0  0  0  0  0  0
   14.8385    7.2990    0.0000 F   0  0  0  0  0  0  0  0  0  0  0  0
   16.3385    4.7010    0.0000 F   0  0  0  0  0  0  0  0  0  0  0  0
  1  2  2  0
  2  3  1  0
  3  4  1  0
  4  5  1  0
  5  6  2  0
  5  7  1  0
  7  8  1  0
  7  9  1  0
  7 10  1  0
 10 11  1  0
 10 12  1  0
 10 13  1  0
 13 14  1  0
 13 15  1  0
 13 16  1  0
 16 17  1  0
 16 18  1  0
 16 19  1  0
 19 20  1  0
 19 21  1  0
 19 22  1  0
 22 23  1  0
 22 24  1  0
 22 25  1  0
 25 26  1  0
 25 27  1  0
 25 28  1  0
 28 29  1  0
 28 30  1  0
 28 31  1  0
M  END
$$$$

     RDKit          2D

 12 12  0  0  0  0  0  0  0  0999 V2000
    2.7760    0.0000    0.0000 N   0  0  0  0  0  0  0  0  0  0  0  0
    1.2760    0.0000    0.0000 C   0  0  0  0  0  0  0  0  0  0  0  0
    0.3943    1.2135    0.0000 N   0  0  0  0  0  0  0  0  0  0  0  0
   -1.0323    0.7500    0.0000 C   0  0  0  0  0  0  0  0  0  0  0  0
   -2.2458    1.6317    0.0000 O   0  0  0  0  0  0  0  0  0  0  0  0
   -1.0323   -0.7500    0.0000 C   0  0  0  0  0  0  0  0  0  0  0  0
   -2.5241   -0.5932    0.0000 F   0  0  0  0  0  0  0  0  0  0  0  0
   -1.3442   -2.2172    0.0000 C   0  0  0  0  0  0  0  0  0  0  0  0
   -1.6560   -3.6844    0.0000 F   0  0  0  0  0  0  0  0  0  0  0  0
   -2.8114   -1.9054    0.0000 F   0  0  0  0  0  0  0  0  0  0  0  0
    0.1231   -2.5291    0.0000 F   0  0  0  0  0  0  0  0  0  0  0  0
    0.3943   -1.2135    0.0000 S   0  0  0  0  0  0  0  0  0  0  0  0
  1  2  1  0
  2  3  2  0
  3  4  1  0
  4  5  2  0
  4  6  1  0
  6  7  1  0
  6  8  1  0
  8  9  1  0
  8 10  1  0
  8 11  1  0
  6 12  1  0
 12  2  1  0
M  END
$$$$

     RDKit          2D

 12 11  0  0  0  0  0  0  0  0999 V2000
    0.0000    0.0000    0.0000 C   0  0  0  0  0  0  0  0  0  0  0  0
    1.2990    0.7500    0.0000 C   0  0  0  0  0  0  0  0  0  0  0  0
    1.2990    2.2500    0.0000 O   0  0  0  0  0  0  0  0  0  0  0  0
    2.5981   -0.0000    0.0000 C   0  0  0  0  0  0  0  0  0  0  0  0
    3.8971    0.7500    0.0000 C   0  0  0  0  0  0  0  0  0  0  0  0
    5.1962   -0.0000    0.0000 C   0  0  0  0  0  0  0  0  0  0  0  0
    5.9462    1.2990    0.0000 F   0  0  0  0  0  0  0  0  0  0  0  0
    4.4462   -1.2990    0.0000 F   0  0  0  0  0  0  0  0  0  0  0  0
    6.4952   -0.7500    0.0000 C   0  0  0  0  0  0  0  0  0  0  0  0
    7.7942   -1.5000    0.0000 F   0  0  0  0  0  0  0  0  0  0  0  0
    5.7452   -2.0490    0.0000 F   0  0  0  0  0  0  0  0  0  0  0  0
    7.2452    0.5490    0.0000 F   0  0  0  0  0  0  0  0  0  0  0  0
  1  2  1  0
  2  3  1  0
  2  4  1  0
  4  5  1  0
  5  6  1  0
  6  7  1  0
  6  8  1  0
  6  9  1  0
  9 10  1  0
  9 11  1  0
  9 12  1  0
M  END
$$$$

     RDKit          2D

 13 12  0  0  0  0  0  0  0  0999 V2000
    0.0000    0.0000    0.0000 C   0  0  0  0  0  0  0  0  0  0  0  0
    1.2990    0.7500    0.0000 C   0  0  0  0  0  0  0  0  0  0  0  0
    2.0490   -0.5490    0.0000 F   0  0  0  0  0  0  0  0  0  0  0  0
    0.5490    2.0490    0.0000 F   0  0  0  0  0  0  0  0  0  0  0  0
    2.5981    1.5000    0.0000 C   0  0  0  0  0  0  0  0  0  0  0  0
    1.8481    2.7990    0.0000 F   0  0  0  0  0  0  0  0  0  0  0  0
    3.3481    0.2010    0.0000 F   0  0  0  0  0  0  0  0  0  0  0  0
    3.8971    2.2500    0.0000 C   0  0  0  0  0  0  0  0  0  0  0  0
    3.1471    3.5490    0.0000 F   0  0  0  0  0  0  0  0  0  0  0  0
    4.6471    0.9510    0.0000 F   0  0  0  0  0  0  0  0  0  0  0  0
    5.1962    3.0000    0.0000 C   0  0  0  0  0  0  0  0  0  0  0  0
    5.1962    4.5000    0.0000 F   0  0  0  0  0  0  0  0  0  0  0  0
    6.4952    2.2500    0.0000 F   0  0  0  0  0  0  0  0  0  0  0  0
  1  2  1  0
  2  3  1  0
  2  4  1  0
  2  5  1  0
  5  6  1  0
  5  7  1  0
  5  8  1  0
  8  9  1  0
  8 10  1  0
  8 11  1  0
 11 12  1  0
 11 13  1  0
M  END
$$$$

     RDKit          2D

 21 21  0  0  0  0  0  0  0  0999 V2000
    3.0000   -2.5981    0.0000 O   0  0  0  0  0  0  0  0  0  0  0  0
    3.7500   -1.2990    0.0000 C   0  0  0  0  0  0  0  0  0  0  0  0
    3.0000    0.0000    0.0000 N   0  0  0  0  0  0  0  0  0  0  0  0
    1.5000    0.0000    0.0000 C   0  0  0  0  0  0  0  0  0  0  0  0
    0.7500   -1.2990    0.0000 C   0  0  0  0  0  0  0  0  0  0  0  0
   -0.7500   -1.2990    0.0000 C   0  0  0  0  0  0  0  0  0  0  0  0
   -1.5000    0.0000    0.0000 C   0  0  0  0  0  0  0  0  0  0  0  0
   -3.0000    0.0000    0.0000 N   0  0  0  0  0  0  0  0  0  0  0  0
   -3.7500   -1.2990    0.0000 O   0  0  0  0  0  0  0  0  0  0  0  0
   -3.7500    1.2990    0.0000 O   0  0  0  0  0  0  0  0  0  0  0  0
   -0.7500    1.2990    0.0000 C   0  0  0  0  0  0  0  0  0  0  0  0
    0.7500    1.2990    0.0000 C   0  0  0  0  0  0  0  0  0  0  0  0
    5.2500   -1.2990    0.0000 C   0  0  0  0  0  0  0  0  0  0  0  0
    6.0000   -2.5981    0.0000 C   0  0  0  0  0  0  0  0  0  0  0  0
    6.7500   -3.8971    0.0000 F   0  0  0  0  0  0  0  0  0  0  0  0
    7.2990   -1.8481    0.0000 F   0  0  0  0  0  0  0  0  0  0  0  0
    4.7010   -3.3481    0.0000 F   0  0  0  0  0  0  0  0  0  0  0  0
    6.0000    0.0000    0.0000 C   0  0  0  0  0  0  0  0  0  0  0  0
    6.7500    1.2990    0.0000 F   0  0  0  0  0  0  0  0  0  0  0  0
    7.2990   -0.7500    0.0000 F   0  0  0  0  0  0  0  0  0  0  0  0
    4.7010    0.7500    0.0000 F   0  0  0  0  0  0  0  0  0  0  0  0
  1  2  2  0
  2  3  1  0
  3  4  1  0
  4  5  2  0
  5  6  1  0
  6  7  2  0
  7  8  1  0
  8  9  2  0
  8 10  1  0
  7 11  1  0
 11 12  2  0
  2 13  1  0
 13 14  1  0
 14 15  1  0
 14 16  1  0
 14 17  1  0
 13 18  1  0
 18 19  1  0
 18 20  1  0
 18 21  1  0
 12  4  1  0
M  CHG  2   8   1  10  -1
M  END
$$$$

     RDKit          2D

 14 13  0  0  0  0  0  0  0  0999 V2000
   -1.5000    0.0000    0.0000 F   0  0  0  0  0  0  0  0  0  0  0  0
    0.0000    0.0000    0.0000 C   0  0  0  0  0  0  0  0  0  0  0  0
    0.0000    1.5000    0.0000 F   0  0  0  0  0  0  0  0  0  0  0  0
   -0.1080   -0.8791    0.0000 F   0  0  0  0  0  0  0  0  0  0  0  0
    1.5000    0.0000    0.0000 C   0  0  0  0  0  0  0  0  0  0  0  0
    1.5000    1.5000    0.0000 Br  0  0  0  0  0  0  0  0  0  0  0  0
    3.0000    0.0000    0.0000 C   0  0  0  0  0  0  0  0  0  0  0  0
    4.5000    0.0000    0.0000 F   0  0  0  0  0  0  0  0  0  0  0  0
    3.0000    1.5000    0.0000 F   0  0  0  0  0  0  0  0  0  0  0  0
    3.1080   -0.8791    0.0000 F   0  0  0  0  0  0  0  0  0  0  0  0
    1.5000   -1.5000    0.0000 C   0  0  0  0  0  0  0  0  0  0  0  0
    1.5000   -3.0000    0.0000 F   0  0  0  0  0  0  0  0  0  0  0  0
    0.6209   -1.6080    0.0000 F   0  0  0  0  0  0  0  0  0  0  0  0
    2.3791   -1.6080    0.0000 F   0  0  0  0  0  0  0  0  0  0  0  0
  1  2  1  0
  2  3  1  0
  2  4  1  0
  2  5  1  0
  5  6  1  0
  5  7  1  0
  7  8  1  0
  7  9  1  0
  7 10  1  0
  5 11  1  0
 11 12  1  0
 11 13  1  0
 11 14  1  0
M  END
$$$$

     RDKit          2D

 28 28  0  0  0  0  0  0  0  0999 V2000
    3.3655   -2.2050    0.0000 F   0  0  0  0  0  0  0  0  0  0  0  0
    3.7500   -1.2990    0.0000 C   0  0  0  0  0  0  0  0  0  0  0  0
    3.0000    0.0000    0.0000 C   0  0  0  0  0  0  0  0  0  0  0  0
    1.5000    0.0000    0.0000 C   0  0  0  0  0  0  0  0  0  0  0  0
    0.7500    1.2990    0.0000 C   0  0  0  0  0  0  0  0  0  0  0  0
    1.5000    2.5981    0.0000 F   0  0  0  0  0  0  0  0  0  0  0  0
   -0.7500    1.2990    0.0000 C   0  0  0  0  0  0  0  0  0  0  0  0
   -1.5000    2.5981    0.0000 F   0  0  0  0  0  0  0  0  0  0  0  0
   -1.5000    0.0000    0.0000 C   0  0  0  0  0  0  0  0  0  0  0  0
   -3.0000    0.0000    0.0000 F   0  0  0  0  0  0  0  0  0  0  0  0
   -0.7500   -1.2990    0.0000 C   0  0  0  0  0  0  0  0  0  0  0  0
   -1.5000   -2.5981    0.0000 F   0  0  0  0  0  0  0  0  0  0  0  0
    0.7500   -1.2990    0.0000 C   0  0  0  0  0  0  0  0  0  0  0  0
    1.5000   -2.5981    0.0000 C   0  0  0  0  0  0  0  0  0  0  0  0
    2.2500   -3.8971    0.0000 F   0  0  0  0  0  0  0  0  0  0  0  0
    2.4059   -2.2136    0.0000 F   0  0  0  0  0  0  0  0  0  0  0  0
    0.2010   -3.3481    0.0000 F   0  0  0  0  0  0  0  0  0  0  0  0
    3.7500    1.2990    0.0000 C   0  0  0  0  0  0  0  0  0  0  0  0
    4.8684    0.8243    0.0000 F   0  0  0  0  0  0  0  0  0  0  0  0
    2.4510    2.0490    0.0000 F   0  0  0  0  0  0  0  0  0  0  0  0
    4.5000    2.5981    0.0000 C   0  0  0  0  0  0  0  0  0  0  0  0
    5.2500    3.8971    0.0000 F   0  0  0  0  0  0  0  0  0  0  0  0
    5.7990    1.8481    0.0000 F   0  0  0  0  0  0  0  0  0  0  0  0
    3.2010    3.3481    0.0000 F   0  0  0  0  0  0  0  0  0  0  0  0
    5.2500   -1.2990    0.0000 C   0  0  0  0  0  0  0  0  0  0  0  0
    6.7500   -1.2990    0.0000 F   0  0  0  0  0  0  0  0  0  0  0  0
    5.2500   -2.7990    0.0000 F   0  0  0  0  0  0  0  0  0  0  0  0
    5.3981   -0.0931    0.0000 F   0  0  0  0  0  0  0  0  0  0  0  0
  1  2  1  0
  2  3  2  3
  3  4  1  0
  4  5  2  0
  5  6  1  0
  5  7  1  0
  7  8  1  0
  7  9  2  0
  9 10  1  0
  9 11  1  0
 11 12  1  0
 11 13  2  0
 13 14  1  0
 14 15  1  0
 14 16  1  0
 14 17  1  0
  3 18  1  0
 18 19  1  0
 18 20  1  0
 18 21  1  0
 21 22  1  0
 21 23  1  0
 21 24  1  0
  2 25  1  0
 25 26  1  0
 25 27  1  0
 25 28  1  0
 13  4  1  0
M  END
$$$$

     RDKit          2D

 31 30  0  0  0  0  0  0  0  0999 V2000
    0.0000    0.0000    0.0000 C   0  0  0  0  0  0  0  0  0  0  0  0
    1.2990    0.7500    0.0000 C   0  0  0  0  0  0  0  0  0  0  0  0
    2.5981   -0.0000    0.0000 C   0  0  0  0  0  0  0  0  0  0  0  0
    1.2990    2.2500    0.0000 C   0  0  0  0  0  0  0  0  0  0  0  0
    2.5981    3.0000    0.0000 C   0  0  0  0  0  0  0  0  0  0  0  0
    2.5981    4.5000    0.0000 O   0  0  0  0  0  0  0  0  0  0  0  0
    3.8971    5.2500    0.0000 C   0  0  0  0  0  0  0  0  0  0  0  0
    5.1962    4.5000    0.0000 O   0  0  0  0  0  0  0  0  0  0  0  0
    3.8971    6.7500    0.0000 C   0  0  0  0  0  0  0  0  0  0  0  0
    5.1962    7.5000    0.0000 C   0  0  0  0  0  0  0  0  0  0  0  0
    6.4952    6.7500    0.0000 N   0  0  0  0  0  0  0  0  0  0  0  0
    7.7942    7.5000    0.0000 C   0  0  0  0  0  0  0  0  0  0  0  0
    7.7942    9.0000    0.0000 O   0  0  0  0  0  0  0  0  0  0  0  0
    9.0933    6.7500    0.0000 C   0  0  0  0  0  0  0  0  0  0  0  0
    9.8433    8.0490    0.0000 F   0  0  0  0  0  0  0  0  0  0  0  0
    8.3433    5.4510    0.0000 F   0  0  0  0  0  0  0  0  0  0  0  0
   10.3923    6.0000    0.0000 C   0  0  0  0  0  0  0  0  0  0  0  0
    9.6423    4.7010    0.0000 F   0  0  0  0  0  0  0  0  0  0  0  0
   11.1423    7.2990    0.0000 F   0  0  0  0  0  0  0  0  0  0  0  0
   11.6913    5.2500    0.0000 C   0  0  0  0  0  0  0  0  0  0  0  0
   12.9904    4.5000    0.0000 F   0  0  0  0  0  0  0  0  0  0  0  0
   12.4413    6.5490    0.0000 F   0  0  0  0  0  0  0  0  0  0  0  0
   10.9413    3.9510    0.0000 F   0  0  0  0  0  0  0  0  0  0  0  0
    5.1962    9.0000    0.0000 C   0  0  0  0  0  0  0  0  0  0  0  0
    3.8971    9.7500    0.0000 O   0  0  0  0  0  0  0  0  0  0  0  0
    6.4952    9.7500    0.0000 O   0  0  0  0  0  0  0  0  0  0  0  0
    6.4952   11.2500    0.0000 C   0  0  0  0  0  0  0  0  0  0  0  0
    7.7942   12.0000    0.0000 C   0  0  0  0  0  0  0  0  0  0  0  0
    7.7942   13.5000    0.0000 C   0  0  0  0  0  0  0  0  0  0  0  0
    9.0933   14.2500    0.0000 C   0  0  0  0  0  0  0  0  0  0  0  0
    6.4952   14.2500    0.0000 C   0  0  0  0  0  0  0  0  0  0  0  0
  1  2  1  0
  2  3  1  0
  2  4  1  0
  4  5  1  0
  5  6  1  0
  6  7  1  0
  7  8  2  0
  7  9  1  0
 10  9  1  1
 10 11  1  0
 11 12  1  0
 12 13  2  0
 12 14  1  0
 14 15  1  0
 14 16  1  0
 14 17  1  0
 17 18  1  0
 17 19  1  0
 17 20  1  0
 20 21  1  0
 20 22  1  0
 20 23  1  0
 10 24  1  0
 24 25  2  0
 24 26  1  0
 26 27  1  0
 27 28  1  0
 28 29  1  0
 29 30  1  0
 29 31  1  0
M  END
$$$$

     RDKit          2D

 12 11  0  0  0  0  0  0  0  0999 V2000
   -0.0000   -1.5000    0.0000 F   0  0  0  0  0  0  0  0  0  0  0  0
    0.0000    0.0000    0.0000 C   0  0  0  0  0  0  0  0  0  0  0  0
   -1.2990    0.7500    0.0000 C   0  0  0  0  0  0  0  0  0  0  0  0
   -1.2990    2.2500    0.0000 Cl  0  0  0  0  0  0  0  0  0  0  0  0
   -2.5981    0.0000    0.0000 C   0  0  0  0  0  0  0  0  0  0  0  0
   -3.8971   -0.7500    0.0000 F   0  0  0  0  0  0  0  0  0  0  0  0
   -3.3481    1.2990    0.0000 F   0  0  0  0  0  0  0  0  0  0  0  0
   -1.8481   -1.2990    0.0000 F   0  0  0  0  0  0  0  0  0  0  0  0
    1.2990    0.7500    0.0000 C   0  0  0  0  0  0  0  0  0  0  0  0
    2.5981    1.5000    0.0000 F   0  0  0  0  0  0  0  0  0  0  0  0
    2.0490   -0.5490    0.0000 F   0  0  0  0  0  0  0  0  0  0  0  0
    0.5490    2.0490    0.0000 F   0  0  0  0  0  0  0  0  0  0  0  0
  1  2  1  0
  2  3  2  3
  3  4  1  0
  3  5  1  0
  5  6  1  0
  5  7  1  0
  5  8  1  0
  2  9  1  0
  9 10  1  0
  9 11  1  0
  9 12  1  0
M  END
$$$$

     RDKit          2D

 26 25  0  0  0  0  0  0  0  0999 V2000
    0.0000    0.0000    0.0000 C   0  0  0  0  0  0  0  0  0  0  0  0
    1.2990    0.7500    0.0000 N   0  0  0  0  0  0  0  0  0  0  0  0
    2.5981   -0.0000    0.0000 C   0  0  0  0  0  0  0  0  0  0  0  0
    2.5981   -1.5000    0.0000 O   0  0  0  0  0  0  0  0  0  0  0  0
    3.8971    0.7500    0.0000 C   0  0  0  0  0  0  0  0  0  0  0  0
    4.6471   -0.5490    0.0000 F   0  0  0  0  0  0  0  0  0  0  0  0
    3.1471    2.0490    0.0000 F   0  0  0  0  0  0  0  0  0  0  0  0
    5.1962    1.5000    0.0000 C   0  0  0  0  0  0  0  0  0  0  0  0
    5.9462    0.2010    0.0000 F   0  0  0  0  0  0  0  0  0  0  0  0
    4.4462    2.7990    0.0000 F   0  0  0  0  0  0  0  0  0  0  0  0
    6.4952    2.2500    0.0000 C   0  0  0  0  0  0  0  0  0  0  0  0
    7.7942    3.0000    0.0000 F   0  0  0  0  0  0  0  0  0  0  0  0
    7.2452    0.9510    0.0000 F   0  0  0  0  0  0  0  0  0  0  0  0
    5.7452    3.5490    0.0000 F   0  0  0  0  0  0  0  0  0  0  0  0
    1.2990    2.2500    0.0000 C   0  0  0  0  0  0  0  0  0  0  0  0
    2.5981    3.0000    0.0000 O   0  0  0  0  0  0  0  0  0  0  0  0
    0.0000    3.0000    0.0000 C   0  0  0  0  0  0  0  0  0  0  0  0
    0.7500    4.2990    0.0000 F   0  0  0  0  0  0  0  0  0  0  0  0
   -0.7500    1.7010    0.0000 F   0  0  0  0  0  0  0  0  0  0  0  0
   -1.2990    3.7500    0.0000 C   0  0  0  0  0  0  0  0  0  0  0  0
   -0.5490    5.0490    0.0000 F   0  0  0  0  0  0  0  0  0  0  0  0
   -2.0490    2.4510    0.0000 F   0  0  0  0  0  0  0  0  0  0  0  0
   -2.5981    4.5000    0.0000 C   0  0  0  0  0  0  0  0  0  0  0  0
   -3.8971    5.2500    0.0000 F   0  0  0  0  0  0  0  0  0  0  0  0
   -1.8481    5.7990    0.0000 F   0  0  0  0  0  0  0  0  0  0  0  0
   -3.3481    3.2010    0.0000 F   0  0  0  0  0  0  0  0  0  0  0  0
  1  2  1  0
  2  3  1  0
  3  4  2  0
  3  5  1  0
  5  6  1  0
  5  7  1  0
  5  8  1  0
  8  9  1  0
  8 10  1  0
  8 11  1  0
 11 12  1  0
 11 13  1  0
 11 14  1  0
  2 15  1  0
 15 16  2  0
 15 17  1  0
 17 18  1  0
 17 19  1  0
 17 20  1  0
 20 21  1  0
 20 22  1  0
 20 23  1  0
 23 24  1  0
 23 25  1  0
 23 26  1  0
M  END
$$$$

     RDKit          2D

 13 12  0  0  0  0  0  0  0  0999 V2000
    5.1962    3.0000    0.0000 F   0  0  0  0  0  0  0  0  0  0  0  0
    3.8971    2.2500    0.0000 C   0  0  0  0  0  0  0  0  0  0  0  0
    4.6471    0.9510    0.0000 F   0  0  0  0  0  0  0  0  0  0  0  0
    3.1471    3.5490    0.0000 F   0  0  0  0  0  0  0  0  0  0  0  0
    2.5981    1.5000    0.0000 C   0  0  0  0  0  0  0  0  0  0  0  0
    1.8481    2.7990    0.0000 F   0  0  0  0  0  0  0  0  0  0  0  0
    3.3481    0.2010    0.0000 F   0  0  0  0  0  0  0  0  0  0  0  0
    1.2990    0.7500    0.0000 C   0  0  0  0  0  0  0  0  0  0  0  0
    2.0490   -0.5490    0.0000 F   0  0  0  0  0  0  0  0  0  0  0  0
    0.5490    2.0490    0.0000 F   0  0  0  0  0  0  0  0  0  0  0  0
    0.0000    0.0000    0.0000 C   0  0  0  0  0  0  0  0  0  0  0  0
   -1.2990    0.7500    0.0000 C   0  0  0  0  0  0  0  0  0  0  0  0
   -2.5981    0.0000    0.0000 I   0  0  0  0  0  0  0  0  0  0  0  0
  1  2  1  0
  2  3  1  0
  2  4  1  0
  2  5  1  0
  5  6  1  0
  5  7  1  0
  5  8  1  0
  8  9  1  0
  8 10  1  0
  8 11  1  0
 11 12  2  3
 12 13  1  0
M  END
$$$$

     RDKit          2D

 33 34  0  0  0  0  0  0  0  0999 V2000
    3.0000   -5.1962    0.0000 O   0  0  0  0  0  0  0  0  0  0  0  0
    1.5000   -5.1962    0.0000 C   0  0  0  0  0  0  0  0  0  0  0  0
    0.7500   -3.8971    0.0000 N   0  0  0  0  0  0  0  0  0  0  0  0
    1.5000   -2.5981    0.0000 C   0  0  0  0  0  0  0  0  0  0  0  0
    3.0000   -2.5981    0.0000 O   0  0  0  0  0  0  0  0  0  0  0  0
    0.7500   -1.2990    0.0000 C   0  0  0  0  0  0  0  0  0  0  0  0
    1.5000    0.0000    0.0000 C   0  0  0  0  0  0  0  0  0  0  0  0
    3.0000    0.0000    0.0000 F   0  0  0  0  0  0  0  0  0  0  0  0
    0.7500    1.2990    0.0000 C   0  0  0  0  0  0  0  0  0  0  0  0
   -0.7500    1.2990    0.0000 C   0  0  0  0  0  0  0  0  0  0  0  0
   -1.5000    0.0000    0.0000 C   0  0  0  0  0  0  0  0  0  0  0  0
   -0.7500   -1.2990    0.0000 C   0  0  0  0  0  0  0  0  0  0  0  0
   -1.5000   -2.5981    0.0000 F   0  0  0  0  0  0  0  0  0  0  0  0
    0.7500   -6.4952    0.0000 N   0  0  0  0  0  0  0  0  0  0  0  0
    1.5000   -7.7942    0.0000 C   0  0  0  0  0  0  0  0  0  0  0  0
    0.7500   -9.0933    0.0000 C   0  0  0  0  0  0  0  0  0  0  0  0
    1.5000  -10.3923    0.0000 C   0  0  0  0  0  0  0  0  0  0  0  0
    0.7500  -11.6913    0.0000 Cl  0  0  0  0  0  0  0  0  0  0  0  0
    3.0000  -10.3923    0.0000 C   0  0  0  0  0  0  0  0  0  0  0  0
    3.7500  -11.6913    0.0000 O   0  0  0  0  0  0  0  0  0  0  0  0
    5.2500  -11.6913    0.0000 C   0  0  0  0  0  0  0  0  0  0  0  0
    5.2500  -10.1913    0.0000 F   0  0  0  0  0  0  0  0  0  0  0  0
    5.2500  -13.1913    0.0000 F   0  0  0  0  0  0  0  0  0  0  0  0
    6.7500  -11.6913    0.0000 C   0  0  0  0  0  0  0  0  0  0  0  0
    7.5000  -10.3923    0.0000 F   0  0  0  0  0  0  0  0  0  0  0  0
    7.5000  -12.9904    0.0000 C   0  0  0  0  0  0  0  0  0  0  0  0
    8.2500  -14.2894    0.0000 F   0  0  0  0  0  0  0  0  0  0  0  0
    8.7990  -12.2404    0.0000 F   0  0  0  0  0  0  0  0  0  0  0  0
    6.2010  -13.7404    0.0000 F   0  0  0  0  0  0  0  0  0  0  0  0
    3.7500   -9.0933    0.0000 C   0  0  0  0  0  0  0  0  0  0  0  0
    5.2500   -9.0933    0.0000 Cl  0  0  0  0  0  0  0  0  0  0  0  0
    3.0000   -7.7942    0.0000 C   0  0  0  0  0  0  0  0  0  0  0  0
    3.7500   -6.4952    0.0000 F   0  0  0  0  0  0  0  0  0  0  0  0
  1  2  2  0
  2  3  1  0
  3  4  1  0
  4  5  2  0
  4  6  1  0
  6  7  2  0
  7  8  1  0
  7  9  1  0
  9 10  2  0
 10 11  1  0
 11 12  2  0
 12 13  1  0
  2 14  1  0
 14 15  1  0
 15 16  2  0
 16 17  1  0
 17 18  1  0
 17 19  2  0
 19 20  1  0
 20 21  1  0
 21 22  1  0
 21 23  1  0
 21 24  1  0
 24 25  1  0
 24 26  1  0
 26 27  1  0
 26 28  1  0
 26 29  1  0
 19 30  1  0
 30 31  1  0
 30 32  2  0
 32 33  1  0
 12  6  1  0
 32 15  1  0
M  END
$$$$

     RDKit          2D

 22 22  0  0  0  0  0  0  0  0999 V2000
    3.7500    1.2990    0.0000 O   0  0  0  0  0  0  0  0  0  0  0  0
    3.0000    0.0000    0.0000 N   0  0  0  0  0  0  0  0  0  0  0  0
    3.7500   -1.2990    0.0000 O   0  0  0  0  0  0  0  0  0  0  0  0
    1.5000    0.0000    0.0000 C   0  0  0  0  0  0  0  0  0  0  0  0
    0.7500   -1.2990    0.0000 C   0  0  0  0  0  0  0  0  0  0  0  0
   -0.7500   -1.2990    0.0000 C   0  0  0  0  0  0  0  0  0  0  0  0
   -1.5000    0.0000    0.0000 C   0  0  0  0  0  0  0  0  0  0  0  0
   -3.0000    0.0000    0.0000 C   0  0  0  0  0  0  0  0  0  0  0  0
   -4.5000    0.0000    0.0000 C   0  0  0  0  0  0  0  0  0  0  0  0
   -6.0000    0.0000    0.0000 F   0  0  0  0  0  0  0  0  0  0  0  0
   -4.6080    0.8791    0.0000 F   0  0  0  0  0  0  0  0  0  0  0  0
   -4.6080   -0.8791    0.0000 F   0  0  0  0  0  0  0  0  0  0  0  0
   -3.0000    1.5000    0.0000 C   0  0  0  0  0  0  0  0  0  0  0  0
   -3.0000    3.0000    0.0000 F   0  0  0  0  0  0  0  0  0  0  0  0
   -3.8791    1.6080    0.0000 F   0  0  0  0  0  0  0  0  0  0  0  0
   -1.5446    1.8630    0.0000 F   0  0  0  0  0  0  0  0  0  0  0  0
   -3.0000   -1.5000    0.0000 C   0  0  0  0  0  0  0  0  0  0  0  0
   -3.0000   -3.0000    0.0000 F   0  0  0  0  0  0  0  0  0  0  0  0
   -3.8791   -1.6080    0.0000 F   0  0  0  0  0  0  0  0  0  0  0  0
   -1.5446   -1.8630    0.0000 F   0  0  0  0  0  0  0  0  0  0  0  0
   -0.7500    1.2990    0.0000 C   0  0  0  0  0  0  0  0  0  0  0  0
    0.7500    1.2990    0.0000 C   0  0  0  0  0  0  0  0  0  0  0  0
  1  2  2  0
  2  3  1  0
  2  4  1  0
  4  5  2  0
  5  6  1  0
  6  7  2  0
  7  8  1  0
  8  9  1  0
  9 10  1  0
  9 11  1  0
  9 12  1  0
  8 13  1  0
 13 14  1  0
 13 15  1  0
 13 16  1  0
  8 17  1  0
 17 18  1  0
 17 19  1  0
 17 20  1  0
  7 21  1  0
 21 22  2  0
 22  4  1  0
M  CHG  2   2   1   3  -1
M  END
$$$$

     RDKit          2D

 41 42  0  0  0  0  0  0  0  0999 V2000
    5.5607    0.0000    0.0000 F   0  0  0  0  0  0  0  0  0  0  0  0
    4.0607    0.0000    0.0000 C   0  0  0  0  0  0  0  0  0  0  0  0
    4.0607    1.5000    0.0000 F   0  0  0  0  0  0  0  0  0  0  0  0
    4.0607   -1.5000    0.0000 F   0  0  0  0  0  0  0  0  0  0  0  0
    2.5607    0.0000    0.0000 C   0  0  0  0  0  0  0  0  0  0  0  0
    2.5607   -1.5000    0.0000 F   0  0  0  0  0  0  0  0  0  0  0  0
    2.5607    1.5000    0.0000 F   0  0  0  0  0  0  0  0  0  0  0  0
    1.0607    0.0000    0.0000 C   0  0  0  0  0  0  0  0  0  0  0  0
   -0.0000   -1.0607    0.0000 C   0  0  0  0  0  0  0  0  0  0  0  0
   -0.0000   -2.5607    0.0000 C   0  0  0  0  0  0  0  0  0  0  0  0
   -1.0610   -2.8253    0.0000 F   0  0  0  0  0  0  0  0  0  0  0  0
    1.5000   -2.5607    0.0000 F   0  0  0  0  0  0  0  0  0  0  0  0
   -0.0000   -4.0607    0.0000 C   0  0  0  0  0  0  0  0  0  0  0  0
    0.0000   -5.5607    0.0000 F   0  0  0  0  0  0  0  0  0  0  0  0
    1.5000   -4.0607    0.0000 F   0  0  0  0  0  0  0  0  0  0  0  0
   -1.5000   -4.0607    0.0000 F   0  0  0  0  0  0  0  0  0  0  0  0
   -1.0607    0.0000    0.0000 C   0  0  0  0  0  0  0  0  0  0  0  0
   -2.1213   -1.0607    0.0000 C   0  0  0  0  0  0  0  0  0  0  0  0
   -2.9830   -0.3875    0.0000 F   0  0  0  0  0  0  0  0  0  0  0  0
   -1.4481   -1.9224    0.0000 F   0  0  0  0  0  0  0  0  0  0  0  0
   -3.1820   -2.1213    0.0000 C   0  0  0  0  0  0  0  0  0  0  0  0
   -4.2426   -3.1820    0.0000 F   0  0  0  0  0  0  0  0  0  0  0  0
   -2.2585   -3.3034    0.0000 F   0  0  0  0  0  0  0  0  0  0  0  0
   -4.3640   -1.1979    0.0000 F   0  0  0  0  0  0  0  0  0  0  0  0
   -2.1213    1.0607    0.0000 C   0  0  0  0  0  0  0  0  0  0  0  0
   -3.6213    1.0607    0.0000 C   0  0  0  0  0  0  0  0  0  0  0  0
   -3.6213    2.5607    0.0000 F   0  0  0  0  0  0  0  0  0  0  0  0
   -3.8859   -0.0003    0.0000 F   0  0  0  0  0  0  0  0  0  0  0  0
   -5.1213    1.0607    0.0000 C   0  0  0  0  0  0  0  0  0  0  0  0
   -6.6213    1.0607    0.0000 F   0  0  0  0  0  0  0  0  0  0  0  0
   -5.1213   -0.4393    0.0000 F   0  0  0  0  0  0  0  0  0  0  0  0
   -5.1213    2.5607    0.0000 F   0  0  0  0  0  0  0  0  0  0  0  0
   -1.0607    2.1213    0.0000 C   0  0  0  0  0  0  0  0  0  0  0  0
   -1.0607    3.6213    0.0000 C   0  0  0  0  0  0  0  0  0  0  0  0
    0.4393    3.6213    0.0000 F   0  0  0  0  0  0  0  0  0  0  0  0
   -2.5607    3.6213    0.0000 F   0  0  0  0  0  0  0  0  0  0  0  0
   -1.0607    5.1213    0.0000 C   0  0  0  0  0  0  0  0  0  0  0  0
   -1.0607    6.6213    0.0000 F   0  0  0  0  0  0  0  0  0  0  0  0
   -2.5607    5.1213    0.0000 F   0  0  0  0  0  0  0  0  0  0  0  0
    0.4393    5.1213    0.0000 F   0  0  0  0  0  0  0  0  0  0  0  0
    0.0000    1.0607    0.0000 N   0  0  0  0  0  0  0  0  0  0  0  0
  1  2  1  0
  2  3  1  0
  2  4  1  0
  2  5  1  0
  5  6  1  0
  5  7  1  0
  5  8  1  0
  8  9  2  0
  9 10  1  0
 10 11  1  0
 10 12  1  0
 10 13  1  0
 13 14  1  0
 13 15  1  0
 13 16  1  0
  9 17  1  0
 17 18  1  0
 18 19  1  0
 18 20  1  0
 18 21  1  0
 21 22  1  0
 21 23  1  0
 21 24  1  0
 17 25  1  0
 25 26  1  0
 26 27  1  0
 26 28  1  0
 26 29  1  0
 29 30  1  0
 29 31  1  0
 29 32  1  0
 25 33  2  0
 33 34  1  0
 34 35  1  0
 34 36  1  0
 34 37  1  0
 37 38  1  0
 37 39  1  0
 37 40  1  0
 33 41  1  0
 41  8  1  0
 41 17  1  0
M  END
$$$$

     RDKit          2D

 22 22  0  0  0  0  0  0  0  0999 V2000
    3.7500    1.2990    0.0000 O   0  0  0  0  0  0  0  0  0  0  0  0
    3.0000    0.0000    0.0000 C   0  0  0  0  0  0  0  0  0  0  0  0
    3.7500   -1.2990    0.0000 O   0  0  0  0  0  0  0  0  0  0  0  0
    1.5000    0.0000    0.0000 C   0  0  0  0  0  0  0  0  0  0  0  0
    0.7500   -1.2990    0.0000 C   0  0  0  0  0  0  0  0  0  0  0  0
   -0.7500   -1.2990    0.0000 C   0  0  0  0  0  0  0  0  0  0  0  0
   -1.5000    0.0000    0.0000 C   0  0  0  0  0  0  0  0  0  0  0  0
   -0.7500    1.2990    0.0000 C   0  0  0  0  0  0  0  0  0  0  0  0
    0.7500    1.2990    0.0000 C   0  0  0  0  0  0  0  0  0  0  0  0
    1.5000    2.5981    0.0000 N   0  0  0  0  0  0  0  0  0  0  0  0
    0.7500    3.8971    0.0000 C   0  0  0  0  0  0  0  0  0  0  0  0
   -0.7500    3.8971    0.0000 O   0  0  0  0  0  0  0  0  0  0  0  0
    1.5000    5.1962    0.0000 C   0  0  0  0  0  0  0  0  0  0  0  0
    0.2010    5.9462    0.0000 F   0  0  0  0  0  0  0  0  0  0  0  0
    2.7990    4.4462    0.0000 F   0  0  0  0  0  0  0  0  0  0  0  0
    2.2500    6.4952    0.0000 C   0  0  0  0  0  0  0  0  0  0  0  0
    3.5490    5.7452    0.0000 F   0  0  0  0  0  0  0  0  0  0  0  0
    0.9510    7.2452    0.0000 F   0  0  0  0  0  0  0  0  0  0  0  0
    3.0000    7.7942    0.0000 C   0  0  0  0  0  0  0  0  0  0  0  0
    3.7500    9.0933    0.0000 F   0  0  0  0  0  0  0  0  0  0  0  0
    1.7010    8.5442    0.0000 F   0  0  0  0  0  0  0  0  0  0  0  0
    4.2990    7.0442    0.0000 F   0  0  0  0  0  0  0  0  0  0  0  0
  1  2  2  0
  2  3  1  0
  2  4  1  0
  4  5  2  0
  5  6  1  0
  6  7  2  0
  7  8  1  0
  8  9  2  0
  9 10  1  0
 10 11  1  0
 11 12  2  0
 11 13  1  0
 13 14  1  0
 13 15  1  0
 13 16  1  0
 16 17  1  0
 16 18  1  0
 16 19  1  0
 19 20  1  0
 19 21  1  0
 19 22  1  0
  9  4  1  0
M  END
$$$$

     RDKit          2D

 18 18  0  0  0  0  0  0  0  0999 V2000
    3.0000    0.0000    0.0000 N   0  0  0  0  0  0  0  0  0  0  0  0
    1.5000    0.0000    0.0000 C   0  0  0  0  0  0  0  0  0  0  0  0
    0.7500   -1.2990    0.0000 C   0  0  0  0  0  0  0  0  0  0  0  0
   -0.7500   -1.2990    0.0000 C   0  0  0  0  0  0  0  0  0  0  0  0
   -1.5000    0.0000    0.0000 C   0  0  0  0  0  0  0  0  0  0  0  0
   -3.0000    0.0000    0.0000 S   0  0  0  0  0  0  0  0  0  0  0  0
   -3.7500    1.2990    0.0000 C   0  0  0  0  0  0  0  0  0  0  0  0
   -2.4510    2.0490    0.0000 F   0  0  0  0  0  0  0  0  0  0  0  0
   -4.5000    2.5981    0.0000 F   0  0  0  0  0  0  0  0  0  0  0  0
   -5.0490    0.5490    0.0000 C   0  0  0  0  0  0  0  0  0  0  0  0
   -4.2990   -0.7500    0.0000 F   0  0  0  0  0  0  0  0  0  0  0  0
   -5.7990    1.8481    0.0000 F   0  0  0  0  0  0  0  0  0  0  0  0
   -6.3481   -0.2010    0.0000 C   0  0  0  0  0  0  0  0  0  0  0  0
   -7.6471   -0.9510    0.0000 F   0  0  0  0  0  0  0  0  0  0  0  0
   -5.5981   -1.5000    0.0000 F   0  0  0  0  0  0  0  0  0  0  0  0
   -7.0981    1.0981    0.0000 F   0  0  0  0  0  0  0  0  0  0  0  0
   -0.7500    1.2990    0.0000 C   0  0  0  0  0  0  0  0  0  0  0  0
    0.7500    1.2990    0.0000 C   0  0  0  0  0  0  0  0  0  0  0  0
  1  2  1  0
  2  3  2  0
  3  4  1  0
  4  5  2  0
  5  6  1  0
  6  7  1  0
  7  8  1  0
  7  9  1  0
  7 10  1  0
 10 11  1  0
 10 12  1  0
 10 13  1  0
 13 14  1  0
 13 15  1  0
 13 16  1  0
  5 17  1  0
 17 18  2  0
 18  2  1  0
M  END
$$$$

     RDKit          2D

 26 26  0  0  0  0  0  0  0  0999 V2000
    3.7500   -1.2990    0.0000 C   0  0  0  0  0  0  0  0  0  0  0  0
    3.0000    0.0000    0.0000 O   0  0  0  0  0  0  0  0  0  0  0  0
    1.5000    0.0000    0.0000 C   0  0  0  0  0  0  0  0  0  0  0  0
    0.7500   -1.2990    0.0000 C   0  0  0  0  0  0  0  0  0  0  0  0
   -0.7500   -1.2990    0.0000 C   0  0  0  0  0  0  0  0  0  0  0  0
   -1.5000   -2.5981    0.0000 N   0  0  0  0  0  0  0  0  0  0  0  0
   -3.0000   -2.5981    0.0000 C   0  0  0  0  0  0  0  0  0  0  0  0
   -3.7500   -1.2990    0.0000 O   0  0  0  0  0  0  0  0  0  0  0  0
   -3.7500   -3.8971    0.0000 C   0  0  0  0  0  0  0  0  0  0  0  0
   -5.2500   -3.8971    0.0000 C   0  0  0  0  0  0  0  0  0  0  0  0
   -6.0000   -5.1962    0.0000 C   0  0  0  0  0  0  0  0  0  0  0  0
   -7.5000   -5.1962    0.0000 C   0  0  0  0  0  0  0  0  0  0  0  0
   -8.2500   -3.8971    0.0000 O   0  0  0  0  0  0  0  0  0  0  0  0
   -8.2500   -6.4952    0.0000 O   0  0  0  0  0  0  0  0  0  0  0  0
   -9.7500   -6.4952    0.0000 C   0  0  0  0  0  0  0  0  0  0  0  0
  -10.5000   -7.7942    0.0000 C   0  0  0  0  0  0  0  0  0  0  0  0
  -11.7990   -7.0442    0.0000 F   0  0  0  0  0  0  0  0  0  0  0  0
   -9.2010   -8.5442    0.0000 F   0  0  0  0  0  0  0  0  0  0  0  0
  -11.2500   -9.0933    0.0000 C   0  0  0  0  0  0  0  0  0  0  0  0
  -10.5000  -10.3923    0.0000 F   0  0  0  0  0  0  0  0  0  0  0  0
  -12.7500   -9.0933    0.0000 F   0  0  0  0  0  0  0  0  0  0  0  0
   -1.5000    0.0000    0.0000 N   0  0  0  0  0  0  0  0  0  0  0  0
   -0.7500    1.2990    0.0000 C   0  0  0  0  0  0  0  0  0  0  0  0
   -1.5000    2.5981    0.0000 O   0  0  0  0  0  0  0  0  0  0  0  0
   -0.7500    3.8971    0.0000 C   0  0  0  0  0  0  0  0  0  0  0  0
    0.7500    1.2990    0.0000 N   0  0  0  0  0  0  0  0  0  0  0  0
  1  2  1  0
  2  3  1  0
  3  4  2  0
  4  5  1  0
  5  6  1  0
  6  7  1  0
  7  8  2  0
  7  9  1  0
  9 10  1  0
 10 11  1  0
 11 12  1  0
 12 13  2  0
 12 14  1  0
 14 15  1  0
 15 16  1  0
 16 17  1  0
 16 18  1  0
 16 19  1  0
 19 20  1  0
 19 21  1  0
  5 22  2  0
 22 23  1  0
 23 24  1  0
 24 25  1  0
 23 26  2  0
 26  3  1  0
M  END
$$$$

     RDKit          2D

 21 20  0  0  0  0  0  0  0  0999 V2000
    0.0000    0.0000    0.0000 C   0  0  0  0  0  0  0  0  0  0  0  0
    1.2990    0.7500    0.0000 C   0  0  0  0  0  0  0  0  0  0  0  0
    2.5981   -0.0000    0.0000 O   0  0  0  0  0  0  0  0  0  0  0  0
    3.8971    0.7500    0.0000 C   0  0  0  0  0  0  0  0  0  0  0  0
    5.1962   -0.0000    0.0000 C   0  0  0  0  0  0  0  0  0  0  0  0
    6.4952    0.7500    0.0000 O   0  0  0  0  0  0  0  0  0  0  0  0
    7.7942   -0.0000    0.0000 C   0  0  0  0  0  0  0  0  0  0  0  0
    9.0933   -0.7500    0.0000 N   0  0  0  0  0  0  0  0  0  0  0  0
   10.3923    0.0000    0.0000 C   0  0  0  0  0  0  0  0  0  0  0  0
   10.3923    0.8857    0.0000 O   0  0  0  0  0  0  0  0  0  0  0  0
   11.6913   -0.7500    0.0000 O   0  0  0  0  0  0  0  0  0  0  0  0
   12.9904    0.0000    0.0000 C   0  0  0  0  0  0  0  0  0  0  0  0
   14.2894   -0.7500    0.0000 C   0  0  0  0  0  0  0  0  0  0  0  0
    8.5442    1.2990    0.0000 C   0  0  0  0  0  0  0  0  0  0  0  0
    9.2942    2.5981    0.0000 F   0  0  0  0  0  0  0  0  0  0  0  0
    7.2452    2.0490    0.0000 F   0  0  0  0  0  0  0  0  0  0  0  0
    9.3957    1.0549    0.0000 F   0  0  0  0  0  0  0  0  0  0  0  0
    7.0442   -1.2990    0.0000 C   0  0  0  0  0  0  0  0  0  0  0  0
    6.2942   -2.5981    0.0000 F   0  0  0  0  0  0  0  0  0  0  0  0
    8.3433   -2.0490    0.0000 F   0  0  0  0  0  0  0  0  0  0  0  0
    5.6023   -0.8857    0.0000 F   0  0  0  0  0  0  0  0  0  0  0  0
  1  2  1  0
  2  3  1  0
  3  4  1  0
  4  5  1  0
  5  6  1  0
  6  7  1  0
  7  8  1  0
  8  9  1  0
  9 10  2  0
  9 11  1  0
 11 12  1  0
 12 13  1  0
  7 14  1  0
 14 15  1  0
 14 16  1  0
 14 17  1  0
  7 18  1  0
 18 19  1  0
 18 20  1  0
 18 21  1  0
M  END
$$$$

     RDKit          2D

 24 24  0  0  0  0  0  0  0  0999 V2000
    3.7981    1.9284    0.0000 F   0  0  0  0  0  0  0  0  0  0  0  0
    2.6491    0.9642    0.0000 C   0  0  0  0  0  0  0  0  0  0  0  0
    3.6132   -0.1849    0.0000 F   0  0  0  0  0  0  0  0  0  0  0  0
    1.8321    2.2222    0.0000 F   0  0  0  0  0  0  0  0  0  0  0  0
    1.5000    0.0000    0.0000 C   0  0  0  0  0  0  0  0  0  0  0  0
    2.6491   -0.9642    0.0000 F   0  0  0  0  0  0  0  0  0  0  0  0
    0.7500   -1.2990    0.0000 C   0  0  0  0  0  0  0  0  0  0  0  0
    2.1595   -1.8121    0.0000 F   0  0  0  0  0  0  0  0  0  0  0  0
    0.4895   -2.7762    0.0000 F   0  0  0  0  0  0  0  0  0  0  0  0
   -0.7500   -1.2990    0.0000 C   0  0  0  0  0  0  0  0  0  0  0  0
   -0.4895   -2.7762    0.0000 F   0  0  0  0  0  0  0  0  0  0  0  0
   -2.1595   -1.8121    0.0000 F   0  0  0  0  0  0  0  0  0  0  0  0
   -1.5000    0.0000    0.0000 C   0  0  0  0  0  0  0  0  0  0  0  0
   -2.6491   -0.9642    0.0000 F   0  0  0  0  0  0  0  0  0  0  0  0
   -2.1686    0.4341    0.0000 F   0  0  0  0  0  0  0  0  0  0  0  0
   -0.7500    1.2990    0.0000 C   0  0  0  0  0  0  0  0  0  0  0  0
   -0.4895    2.7762    0.0000 F   0  0  0  0  0  0  0  0  0  0  0  0
   -2.1595    1.8121    0.0000 C   0  0  0  0  0  0  0  0  0  0  0  0
   -3.5691    2.3251    0.0000 F   0  0  0  0  0  0  0  0  0  0  0  0
   -2.5215    1.1018    0.0000 F   0  0  0  0  0  0  0  0  0  0  0  0
   -1.6465    3.2216    0.0000 F   0  0  0  0  0  0  0  0  0  0  0  0
    0.7500    1.2990    0.0000 C   0  0  0  0  0  0  0  0  0  0  0  0
    0.4895    2.7762    0.0000 F   0  0  0  0  0  0  0  0  0  0  0  0
    2.0865    1.9801    0.0000 F   0  0  0  0  0  0  0  0  0  0  0  0
  1  2  1  0
  2  3  1  0
  2  4  1  0
  2  5  1  0
  5  6  1  0
  5  7  1  0
  7  8  1  0
  7  9  1  0
  7 10  1  0
 10 11  1  0
 10 12  1  0
 10 13  1  0
 13 14  1  0
 13 15  1  0
 13 16  1  0
 16 17  1  0
 16 18  1  0
 18 19  1  0
 18 20  1  0
 18 21  1  0
 16 22  1  0
 22 23  1  0
 22 24  1  0
 22  5  1  0
M  END
$$$$

     RDKit          2D

 13 12  0  0  0  0  0  0  0  0999 V2000
   -0.1828   -1.4888    0.0000 O   0  0  0  0  0  0  0  0  0  0  0  0
    0.0000    0.0000    0.0000 C   0  0  0  0  0  0  0  0  0  0  0  0
   -1.2990    0.7500    0.0000 O   0  0  0  0  0  0  0  0  0  0  0  0
    1.2990    0.7500    0.0000 C   0  0  0  0  0  0  0  0  0  0  0  0
    0.5490    2.0490    0.0000 O   0  0  0  0  0  0  0  0  0  0  0  0
    2.5981    1.5000    0.0000 C   0  0  0  0  0  0  0  0  0  0  0  0
    3.8971    2.2500    0.0000 F   0  0  0  0  0  0  0  0  0  0  0  0
    1.8481    2.7990    0.0000 F   0  0  0  0  0  0  0  0  0  0  0  0
    3.1311    0.7926    0.0000 F   0  0  0  0  0  0  0  0  0  0  0  0
    2.0490   -0.5490    0.0000 C   0  0  0  0  0  0  0  0  0  0  0  0
    2.7990   -1.8481    0.0000 F   0  0  0  0  0  0  0  0  0  0  0  0
    2.8644   -0.2030    0.0000 F   0  0  0  0  0  0  0  0  0  0  0  0
    0.8511   -1.4518    0.0000 F   0  0  0  0  0  0  0  0  0  0  0  0
  1  2  2  0
  2  3  1  0
  2  4  1  0
  4  5  1  0
  4  6  1  0
  6  7  1  0
  6  8  1  0
  6  9  1  0
  4 10  1  0
 10 11  1  0
 10 12  1  0
 10 13  1  0
M  END
$$$$

     RDKit          2D

 24 23  0  0  0  0  0  0  0  0999 V2000
   -0.0000   -1.5000    0.0000 O   0  0  0  0  0  0  0  0  0  0  0  0
    0.0000    0.0000    0.0000 C   0  0  0  0  0  0  0  0  0  0  0  0
   -1.2990    0.7500    0.0000 O   0  0  0  0  0  0  0  0  0  0  0  0
    1.2990    0.7500    0.0000 C   0  0  0  0  0  0  0  0  0  0  0  0
    2.0490   -0.5490    0.0000 F   0  0  0  0  0  0  0  0  0  0  0  0
    0.5490    2.0490    0.0000 F   0  0  0  0  0  0  0  0  0  0  0  0
    2.5981    1.5000    0.0000 C   0  0  0  0  0  0  0  0  0  0  0  0
    1.8481    2.7990    0.0000 F   0  0  0  0  0  0  0  0  0  0  0  0
    3.3481    0.2010    0.0000 F   0  0  0  0  0  0  0  0  0  0  0  0
    3.8971    2.2500    0.0000 C   0  0  0  0  0  0  0  0  0  0  0  0
    4.6471    0.9510    0.0000 F   0  0  0  0  0  0  0  0  0  0  0  0
    3.1471    3.5490    0.0000 F   0  0  0  0  0  0  0  0  0  0  0  0
    5.1962    3.0000    0.0000 C   0  0  0  0  0  0  0  0  0  0  0  0
    5.9462    1.7010    0.0000 F   0  0  0  0  0  0  0  0  0  0  0  0
    4.4462    4.2990    0.0000 F   0  0  0  0  0  0  0  0  0  0  0  0
    6.4952    3.7500    0.0000 C   0  0  0  0  0  0  0  0  0  0  0  0
    5.7452    5.0490    0.0000 F   0  0  0  0  0  0  0  0  0  0  0  0
    7.2452    2.4510    0.0000 F   0  0  0  0  0  0  0  0  0  0  0  0
    7.7942    4.5000    0.0000 C   0  0  0  0  0  0  0  0  0  0  0  0
    8.5442    3.2010    0.0000 F   0  0  0  0  0  0  0  0  0  0  0  0
    7.0442    5.7990    0.0000 F   0  0  0  0  0  0  0  0  0  0  0  0
    9.0933    5.2500    0.0000 C   0  0  0  0  0  0  0  0  0  0  0  0
    9.0933    6.7500    0.0000 O   0  0  0  0  0  0  0  0  0  0  0  0
   10.3923    4.5000    0.0000 O   0  0  0  0  0  0  0  0  0  0  0  0
  1  2  2  0
  2  3  1  0
  2  4  1  0
  4  5  1  0
  4  6  1  0
  4  7  1  0
  7  8  1  0
  7  9  1  0
  7 10  1  0
 10 11  1  0
 10 12  1  0
 10 13  1  0
 13 14  1  0
 13 15  1  0
 13 16  1  0
 16 17  1  0
 16 18  1  0
 16 19  1  0
 19 20  1  0
 19 21  1  0
 19 22  1  0
 22 23  2  0
 22 24  1  0
M  END
$$$$

     RDKit          2D

 30 29  0  0  0  0  0  0  0  0999 V2000
   -1.2990    0.7500    0.0000 O   0  0  0  0  0  0  0  0  0  0  0  0
    0.0000    0.0000    0.0000 C   0  0  0  0  0  0  0  0  0  0  0  0
    1.2990    0.7500    0.0000 C   0  0  0  0  0  0  0  0  0  0  0  0
    2.0490   -0.5490    0.0000 F   0  0  0  0  0  0  0  0  0  0  0  0
    0.5490    2.0490    0.0000 F   0  0  0  0  0  0  0  0  0  0  0  0
    2.5981    1.5000    0.0000 C   0  0  0  0  0  0  0  0  0  0  0  0
    1.8481    2.7990    0.0000 F   0  0  0  0  0  0  0  0  0  0  0  0
    3.3481    0.2010    0.0000 F   0  0  0  0  0  0  0  0  0  0  0  0
    3.8971    2.2500    0.0000 C   0  0  0  0  0  0  0  0  0  0  0  0
    4.6471    0.9510    0.0000 F   0  0  0  0  0  0  0  0  0  0  0  0
    3.1471    3.5490    0.0000 F   0  0  0  0  0  0  0  0  0  0  0  0
    5.1962    3.0000    0.0000 C   0  0  0  0  0  0  0  0  0  0  0  0
    4.4462    4.2990    0.0000 F   0  0  0  0  0  0  0  0  0  0  0  0
    5.9462    1.7010    0.0000 F   0  0  0  0  0  0  0  0  0  0  0  0
    6.4952    3.7500    0.0000 C   0  0  0  0  0  0  0  0  0  0  0  0
    7.2452    2.4510    0.0000 F   0  0  0  0  0  0  0  0  0  0  0  0
    5.7452    5.0490    0.0000 F   0  0  0  0  0  0  0  0  0  0  0  0
    7.7942    4.5000    0.0000 C   0  0  0  0  0  0  0  0  0  0  0  0
    7.0442    5.7990    0.0000 F   0  0  0  0  0  0  0  0  0  0  0  0
    8.5442    3.2010    0.0000 F   0  0  0  0  0  0  0  0  0  0  0  0
    9.0933    5.2500    0.0000 C   0  0  0  0  0  0  0  0  0  0  0  0
    9.8433    3.9510    0.0000 F   0  0  0  0  0  0  0  0  0  0  0  0
    8.3433    6.5490    0.0000 F   0  0  0  0  0  0  0  0  0  0  0  0
   10.3923    6.0000    0.0000 C   0  0  0  0  0  0  0  0  0  0  0  0
    9.6423    7.2990    0.0000 F   0  0  0  0  0  0  0  0  0  0  0  0
   11.1423    4.7010    0.0000 F   0  0  0  0  0  0  0  0  0  0  0  0
   11.6913    6.7500    0.0000 C   0  0  0  0  0  0  0  0  0  0  0  0
   12.9904    7.5000    0.0000 F   0  0  0  0  0  0  0  0  0  0  0  0
   12.4413    5.4510    0.0000 F   0  0  0  0  0  0  0  0  0  0  0  0
   10.9413    8.0490    0.0000 F   0  0  0  0  0  0  0  0  0  0  0  0
  1  2  1  0
  2  3  1  0
  3  4  1  0
  3  5  1  0
  3  6  1  0
  6  7  1  0
  6  8  1  0
  6  9  1  0
  9 10  1  0
  9 11  1  0
  9 12  1  0
 12 13  1  0
 12 14  1  0
 12 15  1  0
 15 16  1  0
 15 17  1  0
 15 18  1  0
 18 19  1  0
 18 20  1  0
 18 21  1  0
 21 22  1  0
 21 23  1  0
 21 24  1  0
 24 25  1  0
 24 26  1  0
 24 27  1  0
 27 28  1  0
 27 29  1  0
 27 30  1  0
M  END
$$$$

     RDKit          2D

 27 26  0  0  0  0  0  0  0  0999 V2000
    0.0000    0.0000    0.0000 C   0  0  0  0  0  0  0  0  0  0  0  0
    1.2990    0.7500    0.0000 C   0  0  0  0  0  0  0  0  0  0  0  0
    2.5981   -0.0000    0.0000 C   0  0  0  0  0  0  0  0  0  0  0  0
    3.8971    0.7500    0.0000 O   0  0  0  0  0  0  0  0  0  0  0  0
    5.1962   -0.0000    0.0000 C   0  0  0  0  0  0  0  0  0  0  0  0
    6.4952    0.7500    0.0000 C   0  0  0  0  0  0  0  0  0  0  0  0
    7.2452   -0.5490    0.0000 F   0  0  0  0  0  0  0  0  0  0  0  0
    5.7452    2.0490    0.0000 F   0  0  0  0  0  0  0  0  0  0  0  0
    7.7942    1.5000    0.0000 C   0  0  0  0  0  0  0  0  0  0  0  0
    7.0442    2.7990    0.0000 F   0  0  0  0  0  0  0  0  0  0  0  0
    8.5442    0.2010    0.0000 F   0  0  0  0  0  0  0  0  0  0  0  0
    9.0933    2.2500    0.0000 C   0  0  0  0  0  0  0  0  0  0  0  0
    9.8433    0.9510    0.0000 F   0  0  0  0  0  0  0  0  0  0  0  0
    8.3433    3.5490    0.0000 F   0  0  0  0  0  0  0  0  0  0  0  0
   10.3923    3.0000    0.0000 C   0  0  0  0  0  0  0  0  0  0  0  0
    9.6423    4.2990    0.0000 F   0  0  0  0  0  0  0  0  0  0  0  0
   11.1423    1.7010    0.0000 F   0  0  0  0  0  0  0  0  0  0  0  0
   11.6913    3.7500    0.0000 C   0  0  0  0  0  0  0  0  0  0  0  0
   12.4413    2.4510    0.0000 F   0  0  0  0  0  0  0  0  0  0  0  0
   10.9413    5.0490    0.0000 F   0  0  0  0  0  0  0  0  0  0  0  0
   12.9904    4.5000    0.0000 C   0  0  0  0  0  0  0  0  0  0  0  0
   12.2404    5.7990    0.0000 F   0  0  0  0  0  0  0  0  0  0  0  0
   13.7404    3.2010    0.0000 F   0  0  0  0  0  0  0  0  0  0  0  0
   14.2894    5.2500    0.0000 C   0  0  0  0  0  0  0  0  0  0  0  0
   15.5885    6.0000    0.0000 F   0  0  0  0  0  0  0  0  0  0  0  0
   15.0394    3.9510    0.0000 F   0  0  0  0  0  0  0  0  0  0  0  0
   13.5394    6.5490    0.0000 F   0  0  0  0  0  0  0  0  0  0  0  0
  1  2  2  0
  2  3  1  0
  3  4  1  0
  4  5  1  0
  5  6  1  0
  6  7  1  0
  6  8  1  0
  6  9  1  0
  9 10  1  0
  9 11  1  0
  9 12  1  0
 12 13  1  0
 12 14  1  0
 12 15  1  0
 15 16  1  0
 15 17  1  0
 15 18  1  0
 18 19  1  0
 18 20  1  0
 18 21  1  0
 21 22  1  0
 21 23  1  0
 21 24  1  0
 24 25  1  0
 24 26  1  0
 24 27  1  0
M  END
$$$$

     RDKit          2D

 31 30  0  0  0  0  0  0  0  0999 V2000
   -3.3481    1.2990    0.0000 O   0  0  0  0  0  0  0  0  0  0  0  0
   -2.5981    0.0000    0.0000 S   0  0  0  0  0  0  0  0  0  0  0  0
   -1.8481   -1.2990    0.0000 O   0  0  0  0  0  0  0  0  0  0  0  0
   -1.2990    0.7500    0.0000 O   0  0  0  0  0  0  0  0  0  0  0  0
    0.0000    0.0000    0.0000 C   0  0  0  0  0  0  0  0  0  0  0  0
    1.2990    0.7500    0.0000 C   0  0  0  0  0  0  0  0  0  0  0  0
    2.0490   -0.5490    0.0000 F   0  0  0  0  0  0  0  0  0  0  0  0
    0.5490    2.0490    0.0000 F   0  0  0  0  0  0  0  0  0  0  0  0
    2.5981    1.5000    0.0000 C   0  0  0  0  0  0  0  0  0  0  0  0
    1.8481    2.7990    0.0000 F   0  0  0  0  0  0  0  0  0  0  0  0
    3.3481    0.2010    0.0000 F   0  0  0  0  0  0  0  0  0  0  0  0
    3.8971    2.2500    0.0000 C   0  0  0  0  0  0  0  0  0  0  0  0
    3.1471    3.5490    0.0000 F   0  0  0  0  0  0  0  0  0  0  0  0
    4.6471    0.9510    0.0000 F   0  0  0  0  0  0  0  0  0  0  0  0
    5.1962    3.0000    0.0000 C   0  0  0  0  0  0  0  0  0  0  0  0
    5.1962    4.5000    0.0000 F   0  0  0  0  0  0  0  0  0  0  0  0
    6.4952    2.2500    0.0000 F   0  0  0  0  0  0  0  0  0  0  0  0
   -3.8971   -0.7500    0.0000 O   0  0  0  0  0  0  0  0  0  0  0  0
   -3.8971   -2.2500    0.0000 C   0  0  0  0  0  0  0  0  0  0  0  0
   -5.1962   -3.0000    0.0000 C   0  0  0  0  0  0  0  0  0  0  0  0
   -4.4462   -4.2990    0.0000 F   0  0  0  0  0  0  0  0  0  0  0  0
   -5.9462   -1.7010    0.0000 F   0  0  0  0  0  0  0  0  0  0  0  0
   -6.4952   -3.7500    0.0000 C   0  0  0  0  0  0  0  0  0  0  0  0
   -7.2452   -2.4510    0.0000 F   0  0  0  0  0  0  0  0  0  0  0  0
   -5.7452   -5.0490    0.0000 F   0  0  0  0  0  0  0  0  0  0  0  0
   -7.7942   -4.5000    0.0000 C   0  0  0  0  0  0  0  0  0  0  0  0
   -8.5442   -3.2010    0.0000 F   0  0  0  0  0  0  0  0  0  0  0  0
   -7.0442   -5.7990    0.0000 F   0  0  0  0  0  0  0  0  0  0  0  0
   -9.0933   -5.2500    0.0000 C   0  0  0  0  0  0  0  0  0  0  0  0
  -10.3923   -4.5000    0.0000 F   0  0  0  0  0  0  0  0  0  0  0  0
   -9.0933   -6.7500    0.0000 F   0  0  0  0  0  0  0  0  0  0  0  0
  1  2  2  0
  2  3  2  0
  2  4  1  0
  4  5  1  0
  5  6  1  0
  6  7  1  0
  6  8  1  0
  6  9  1  0
  9 10  1  0
  9 11  1  0
  9 12  1  0
 12 13  1  0
 12 14  1  0
 12 15  1  0
 15 16  1  0
 15 17  1  0
  2 18  1  0
 18 19  1  0
 19 20  1  0
 20 21  1  0
 20 22  1  0
 20 23  1  0
 23 24  1  0
 23 25  1  0
 23 26  1  0
 26 27  1  0
 26 28  1  0
 26 29  1  0
 29 30  1  0
 29 31  1  0
M  END
$$$$

     RDKit          2D

 13 12  0  0  0  0  0  0  0  0999 V2000
   -0.0000   -1.5000    0.0000 O   0  0  0  0  0  0  0  0  0  0  0  0
    0.0000    0.0000    0.0000 C   0  0  0  0  0  0  0  0  0  0  0  0
   -1.2990    0.7500    0.0000 O   0  0  0  0  0  0  0  0  0  0  0  0
    1.2990    0.7500    0.0000 C   0  0  0  0  0  0  0  0  0  0  0  0
    2.0490   -0.5490    0.0000 F   0  0  0  0  0  0  0  0  0  0  0  0
    0.5490    2.0490    0.0000 F   0  0  0  0  0  0  0  0  0  0  0  0
    2.5981    1.5000    0.0000 C   0  0  0  0  0  0  0  0  0  0  0  0
    1.8481    2.7990    0.0000 F   0  0  0  0  0  0  0  0  0  0  0  0
    3.3481    0.2010    0.0000 Br  0  0  0  0  0  0  0  0  0  0  0  0
    3.8971    2.2500    0.0000 C   0  0  0  0  0  0  0  0  0  0  0  0
    5.1962    3.0000    0.0000 F   0  0  0  0  0  0  0  0  0  0  0  0
    4.6471    0.9510    0.0000 F   0  0  0  0  0  0  0  0  0  0  0  0
    3.1471    3.5490    0.0000 Cl  0  0  0  0  0  0  0  0  0  0  0  0
  1  2  2  0
  2  3  1  0
  2  4  1  0
  4  5  1  0
  4  6  1  0
  4  7  1  0
  7  8  1  0
  7  9  1  0
  7 10  1  0
 10 11  1  0
 10 12  1  0
 10 13  1  0
M  END
$$$$

     RDKit          2D

 22 21  0  0  0  0  0  0  0  0999 V2000
    6.4952    3.7500    0.0000 F   0  0  0  0  0  0  0  0  0  0  0  0
    5.1962    3.0000    0.0000 C   0  0  0  0  0  0  0  0  0  0  0  0
    4.4462    4.2990    0.0000 F   0  0  0  0  0  0  0  0  0  0  0  0
    5.9462    1.7010    0.0000 F   0  0  0  0  0  0  0  0  0  0  0  0
    3.8971    2.2500    0.0000 C   0  0  0  0  0  0  0  0  0  0  0  0
    4.6471    0.9510    0.0000 F   0  0  0  0  0  0  0  0  0  0  0  0
    3.1471    3.5490    0.0000 F   0  0  0  0  0  0  0  0  0  0  0  0
    2.5981    1.5000    0.0000 C   0  0  0  0  0  0  0  0  0  0  0  0
    2.2520    2.3153    0.0000 F   0  0  0  0  0  0  0  0  0  0  0  0
    3.1311    0.7926    0.0000 F   0  0  0  0  0  0  0  0  0  0  0  0
    1.2990    0.7500    0.0000 C   0  0  0  0  0  0  0  0  0  0  0  0
    0.0000    0.0000    0.0000 C   0  0  0  0  0  0  0  0  0  0  0  0
   -1.2990    0.7500    0.0000 C   0  0  0  0  0  0  0  0  0  0  0  0
   -2.5981    0.0000    0.0000 Br  0  0  0  0  0  0  0  0  0  0  0  0
    2.0490   -0.5490    0.0000 C   0  0  0  0  0  0  0  0  0  0  0  0
    2.7990   -1.8481    0.0000 F   0  0  0  0  0  0  0  0  0  0  0  0
    2.8644   -0.2030    0.0000 F   0  0  0  0  0  0  0  0  0  0  0  0
    0.7500   -1.2990    0.0000 F   0  0  0  0  0  0  0  0  0  0  0  0
    0.5490    2.0490    0.0000 C   0  0  0  0  0  0  0  0  0  0  0  0
   -0.2010    3.3481    0.0000 F   0  0  0  0  0  0  0  0  0  0  0  0
    1.2564    2.5821    0.0000 F   0  0  0  0  0  0  0  0  0  0  0  0
   -0.8929    1.6357    0.0000 F   0  0  0  0  0  0  0  0  0  0  0  0
  1  2  1  0
  2  3  1  0
  2  4  1  0
  2  5  1  0
  5  6  1  0
  5  7  1  0
  5  8  1  0
  8  9  1  0
  8 10  1  0
  8 11  1  0
 11 12  1  0
 12 13  2  3
 13 14  1  0
 11 15  1  0
 15 16  1  0
 15 17  1  0
 15 18  1  0
 11 19  1  0
 19 20  1  0
 19 21  1  0
 19 22  1  0
M  END
$$$$

     RDKit          2D

 18 18  0  0  0  0  0  0  0  0999 V2000
    2.6491    0.9642    0.0000 F   0  0  0  0  0  0  0  0  0  0  0  0
    1.5000    0.0000    0.0000 C   0  0  0  0  0  0  0  0  0  0  0  0
    2.6491   -0.9642    0.0000 F   0  0  0  0  0  0  0  0  0  0  0  0
    0.7500   -1.2990    0.0000 C   0  0  0  0  0  0  0  0  0  0  0  0
    2.1595   -1.8121    0.0000 F   0  0  0  0  0  0  0  0  0  0  0  0
    0.4895   -2.7762    0.0000 F   0  0  0  0  0  0  0  0  0  0  0  0
   -0.7500   -1.2990    0.0000 C   0  0  0  0  0  0  0  0  0  0  0  0
   -0.4895   -2.7762    0.0000 F   0  0  0  0  0  0  0  0  0  0  0  0
   -2.1595   -1.8121    0.0000 F   0  0  0  0  0  0  0  0  0  0  0  0
   -1.5000    0.0000    0.0000 C   0  0  0  0  0  0  0  0  0  0  0  0
   -2.6491   -0.9642    0.0000 F   0  0  0  0  0  0  0  0  0  0  0  0
   -2.6491    0.9642    0.0000 Br  0  0  0  0  0  0  0  0  0  0  0  0
   -0.7500    1.2990    0.0000 C   0  0  0  0  0  0  0  0  0  0  0  0
   -2.1595    1.8121    0.0000 F   0  0  0  0  0  0  0  0  0  0  0  0
   -0.4895    2.7762    0.0000 F   0  0  0  0  0  0  0  0  0  0  0  0
    0.7500    1.2990    0.0000 C   0  0  0  0  0  0  0  0  0  0  0  0
    0.4895    2.7762    0.0000 F   0  0  0  0  0  0  0  0  0  0  0  0
    2.1595    1.8121    0.0000 F   0  0  0  0  0  0  0  0  0  0  0  0
  1  2  1  0
  2  3  1  0
  2  4  1  0
  4  5  1  0
  4  6  1  0
  4  7  1  0
  7  8  1  0
  7  9  1  0
  7 10  1  0
 10 11  1  0
 10 12  1  0
 10 13  1  0
 13 14  1  0
 13 15  1  0
 13 16  1  0
 16 17  1  0
 16 18  1  0
 16  2  1  0
M  END
$$$$

     RDKit          2D

 10  9  0  0  0  0  0  0  0  0999 V2000
   -1.2990    0.7500    0.0000 O   0  0  0  0  0  0  0  0  0  0  0  0
    0.0000    0.0000    0.0000 C   0  0  0  0  0  0  0  0  0  0  0  0
   -0.0000   -1.5000    0.0000 Cl  0  0  0  0  0  0  0  0  0  0  0  0
    1.2990    0.7500    0.0000 C   0  0  0  0  0  0  0  0  0  0  0  0
    0.5490    2.0490    0.0000 F   0  0  0  0  0  0  0  0  0  0  0  0
    2.0490   -0.5490    0.0000 Br  0  0  0  0  0  0  0  0  0  0  0  0
    2.5981    1.5000    0.0000 C   0  0  0  0  0  0  0  0  0  0  0  0
    3.8971    2.2500    0.0000 F   0  0  0  0  0  0  0  0  0  0  0  0
    1.8481    2.7990    0.0000 F   0  0  0  0  0  0  0  0  0  0  0  0
    3.3481    0.2010    0.0000 F   0  0  0  0  0  0  0  0  0  0  0  0
  1  2  2  0
  2  3  1  0
  2  4  1  0
  4  5  1  0
  4  6  1  0
  4  7  1  0
  7  8  1  0
  7  9  1  0
  7 10  1  0
M  END
$$$$

     RDKit          2D

 14 13  0  0  0  0  0  0  0  0999 V2000
   -1.5000    0.0000    0.0000 F   0  0  0  0  0  0  0  0  0  0  0  0
    0.0000    0.0000    0.0000 C   0  0  0  0  0  0  0  0  0  0  0  0
    0.0000    1.5000    0.0000 F   0  0  0  0  0  0  0  0  0  0  0  0
   -0.0000   -1.5000    0.0000 Br  0  0  0  0  0  0  0  0  0  0  0  0
    1.5000    0.0000    0.0000 C   0  0  0  0  0  0  0  0  0  0  0  0
    1.5000    1.5000    0.0000 F   0  0  0  0  0  0  0  0  0  0  0  0
    1.5000   -1.5000    0.0000 F   0  0  0  0  0  0  0  0  0  0  0  0
    3.0000    0.0000    0.0000 C   0  0  0  0  0  0  0  0  0  0  0  0
    3.0000    1.5000    0.0000 F   0  0  0  0  0  0  0  0  0  0  0  0
    3.0000   -1.5000    0.0000 F   0  0  0  0  0  0  0  0  0  0  0  0
    4.5000    0.0000    0.0000 C   0  0  0  0  0  0  0  0  0  0  0  0
    6.0000    0.0000    0.0000 F   0  0  0  0  0  0  0  0  0  0  0  0
    4.5000   -1.5000    0.0000 F   0  0  0  0  0  0  0  0  0  0  0  0
    4.5000    1.5000    0.0000 Br  0  0  0  0  0  0  0  0  0  0  0  0
  1  2  1  0
  2  3  1  0
  2  4  1  0
  2  5  1  0
  5  6  1  0
  5  7  1  0
  5  8  1  0
  8  9  1  0
  8 10  1  0
  8 11  1  0
 11 12  1  0
 11 13  1  0
 11 14  1  0
M  END
$$$$

     RDKit          2D

 10  9  0  0  0  0  0  0  0  0999 V2000
    0.0000    0.0000    0.0000 C   0  0  0  0  0  0  0  0  0  0  0  0
    1.2990    0.7500    0.0000 C   0  0  0  0  0  0  0  0  0  0  0  0
    1.2990    2.2500    0.0000 Br  0  0  0  0  0  0  0  0  0  0  0  0
    2.5981   -0.0000    0.0000 C   0  0  0  0  0  0  0  0  0  0  0  0
    3.3481    1.2990    0.0000 F   0  0  0  0  0  0  0  0  0  0  0  0
    1.8481   -1.2990    0.0000 F   0  0  0  0  0  0  0  0  0  0  0  0
    3.8971   -0.7500    0.0000 C   0  0  0  0  0  0  0  0  0  0  0  0
    5.1962   -1.5000    0.0000 F   0  0  0  0  0  0  0  0  0  0  0  0
    3.1471   -2.0490    0.0000 F   0  0  0  0  0  0  0  0  0  0  0  0
    4.6471    0.5490    0.0000 Br  0  0  0  0  0  0  0  0  0  0  0  0
  1  2  2  0
  2  3  1  0
  2  4  1  0
  4  5  1  0
  4  6  1  0
  4  7  1  0
  7  8  1  0
  7  9  1  0
  7 10  1  0
M  END
$$$$

     RDKit          2D

 17 16  0  0  0  0  0  0  0  0999 V2000
    0.0000    0.0000    0.0000 C   0  0  0  0  0  0  0  0  0  0  0  0
    1.2990    0.7500    0.0000 C   0  0  0  0  0  0  0  0  0  0  0  0
    2.5981    1.5000    0.0000 C   0  0  0  0  0  0  0  0  0  0  0  0
    2.0490   -0.5490    0.0000 C   0  0  0  0  0  0  0  0  0  0  0  0
    0.5490    2.0490    0.0000 O   0  0  0  0  0  0  0  0  0  0  0  0
    1.2990    3.3481    0.0000 C   0  0  0  0  0  0  0  0  0  0  0  0
    2.7990    3.3481    0.0000 O   0  0  0  0  0  0  0  0  0  0  0  0
    0.5490    4.6471    0.0000 N   0  0  0  0  0  0  0  0  0  0  0  0
    1.2990    5.9462    0.0000 C   0  0  0  0  0  0  0  0  0  0  0  0
    0.5490    7.2452    0.0000 C   0  0  0  0  0  0  0  0  0  0  0  0
   -0.2010    8.5442    0.0000 F   0  0  0  0  0  0  0  0  0  0  0  0
    1.8481    7.9952    0.0000 F   0  0  0  0  0  0  0  0  0  0  0  0
   -0.7500    6.4952    0.0000 F   0  0  0  0  0  0  0  0  0  0  0  0
    2.7990    5.9462    0.0000 C   0  0  0  0  0  0  0  0  0  0  0  0
    4.2990    5.9462    0.0000 F   0  0  0  0  0  0  0  0  0  0  0  0
    2.7990    7.4462    0.0000 F   0  0  0  0  0  0  0  0  0  0  0  0
    2.7990    4.4462    0.0000 F   0  0  0  0  0  0  0  0  0  0  0  0
  1  2  1  0
  2  3  1  0
  2  4  1  0
  2  5  1  0
  5  6  1  0
  6  7  2  0
  6  8  1  0
  8  9  2  0
  9 10  1  0
 10 11  1  0
 10 12  1  0
 10 13  1  0
  9 14  1  0
 14 15  1  0
 14 16  1  0
 14 17  1  0
M  END
$$$$

     RDKit          2D

 17 17  0  0  0  0  0  0  0  0999 V2000
    2.3857    0.0000    0.0000 N   0  0  0  0  0  0  0  0  0  0  0  0
    1.5000    0.0000    0.0000 C   0  0  0  0  0  0  0  0  0  0  0  0
    0.7500   -1.2990    0.0000 C   0  0  0  0  0  0  0  0  0  0  0  0
   -0.7500   -1.2990    0.0000 C   0  0  0  0  0  0  0  0  0  0  0  0
   -1.5000    0.0000    0.0000 C   0  0  0  0  0  0  0  0  0  0  0  0
   -0.7500    1.2990    0.0000 C   0  0  0  0  0  0  0  0  0  0  0  0
    0.7500    1.2990    0.0000 C   0  0  0  0  0  0  0  0  0  0  0  0
    1.5000    2.5981    0.0000 C   0  0  0  0  0  0  0  0  0  0  0  0
    0.2010    3.3481    0.0000 O   0  0  0  0  0  0  0  0  0  0  0  0
    2.2500    3.8971    0.0000 C   0  0  0  0  0  0  0  0  0  0  0  0
    3.0000    5.1962    0.0000 F   0  0  0  0  0  0  0  0  0  0  0  0
    0.9510    4.6471    0.0000 F   0  0  0  0  0  0  0  0  0  0  0  0
    3.0653    3.5511    0.0000 F   0  0  0  0  0  0  0  0  0  0  0  0
    2.7990    1.8481    0.0000 C   0  0  0  0  0  0  0  0  0  0  0  0
    4.0981    1.0981    0.0000 F   0  0  0  0  0  0  0  0  0  0  0  0
    3.3321    2.5554    0.0000 F   0  0  0  0  0  0  0  0  0  0  0  0
    2.5549    0.9966    0.0000 F   0  0  0  0  0  0  0  0  0  0  0  0
  1  2  1  0
  2  3  2  0
  3  4  1  0
  4  5  2  0
  5  6  1  0
  6  7  2  0
  7  8  1  0
  8  9  1  0
  8 10  1  0
 10 11  1  0
 10 12  1  0
 10 13  1  0
  8 14  1  0
 14 15  1  0
 14 16  1  0
 14 17  1  0
  7  2  1  0
M  END
$$$$

     RDKit          2D

 16 15  0  0  0  0  0  0  0  0999 V2000
    3.8971    2.2500    0.0000 F   0  0  0  0  0  0  0  0  0  0  0  0
    2.5981    1.5000    0.0000 C   0  0  0  0  0  0  0  0  0  0  0  0
    2.2520    2.3153    0.0000 F   0  0  0  0  0  0  0  0  0  0  0  0
    3.1311    0.7926    0.0000 F   0  0  0  0  0  0  0  0  0  0  0  0
    1.2990    0.7500    0.0000 C   0  0  0  0  0  0  0  0  0  0  0  0
    0.0000    0.0000    0.0000 C   0  0  0  0  0  0  0  0  0  0  0  0
   -1.2990    0.7500    0.0000 C   0  0  0  0  0  0  0  0  0  0  0  0
   -2.5981    0.0000    0.0000 I   0  0  0  0  0  0  0  0  0  0  0  0
    2.0490   -0.5490    0.0000 C   0  0  0  0  0  0  0  0  0  0  0  0
    2.7990   -1.8481    0.0000 F   0  0  0  0  0  0  0  0  0  0  0  0
    2.8644   -0.2030    0.0000 F   0  0  0  0  0  0  0  0  0  0  0  0
    0.7500   -1.2990    0.0000 F   0  0  0  0  0  0  0  0  0  0  0  0
    0.5490    2.0490    0.0000 C   0  0  0  0  0  0  0  0  0  0  0  0
   -0.2010    3.3481    0.0000 F   0  0  0  0  0  0  0  0  0  0  0  0
    1.2564    2.5821    0.0000 F   0  0  0  0  0  0  0  0  0  0  0  0
   -0.8929    1.6357    0.0000 F   0  0  0  0  0  0  0  0  0  0  0  0
  1  2  1  0
  2  3  1  0
  2  4  1  0
  2  5  1  0
  5  6  1  0
  6  7  1  0
  7  8  1  0
  5  9  1  0
  9 10  1  0
  9 11  1  0
  9 12  1  0
  5 13  1  0
 13 14  1  0
 13 15  1  0
 13 16  1  0
M  END
$$$$

     RDKit          2D

 34 33  0  0  0  0  0  0  0  0999 V2000
    0.0000    0.0000    0.0000 C   0  0  0  0  0  0  0  0  0  0  0  0
    1.2990    0.7500    0.0000 C   0  0  0  0  0  0  0  0  0  0  0  0
    2.5981   -0.0000    0.0000 C   0  0  0  0  0  0  0  0  0  0  0  0
    2.5981   -1.5000    0.0000 O   0  0  0  0  0  0  0  0  0  0  0  0
    3.8971    0.7500    0.0000 O   0  0  0  0  0  0  0  0  0  0  0  0
    5.1962   -0.0000    0.0000 C   0  0  0  0  0  0  0  0  0  0  0  0
    6.4952    0.7500    0.0000 C   0  0  0  0  0  0  0  0  0  0  0  0
    7.2452   -0.5490    0.0000 F   0  0  0  0  0  0  0  0  0  0  0  0
    5.7452    2.0490    0.0000 F   0  0  0  0  0  0  0  0  0  0  0  0
    7.7942    1.5000    0.0000 C   0  0  0  0  0  0  0  0  0  0  0  0
    7.0442    2.7990    0.0000 F   0  0  0  0  0  0  0  0  0  0  0  0
    8.5442    0.2010    0.0000 F   0  0  0  0  0  0  0  0  0  0  0  0
    9.0933    2.2500    0.0000 C   0  0  0  0  0  0  0  0  0  0  0  0
    9.8433    0.9510    0.0000 F   0  0  0  0  0  0  0  0  0  0  0  0
    8.3433    3.5490    0.0000 F   0  0  0  0  0  0  0  0  0  0  0  0
   10.3923    3.0000    0.0000 C   0  0  0  0  0  0  0  0  0  0  0  0
    9.6423    4.2990    0.0000 F   0  0  0  0  0  0  0  0  0  0  0  0
   11.1423    1.7010    0.0000 F   0  0  0  0  0  0  0  0  0  0  0  0
   11.6913    3.7500    0.0000 C   0  0  0  0  0  0  0  0  0  0  0  0
   12.4413    2.4510    0.0000 F   0  0  0  0  0  0  0  0  0  0  0  0
   10.9413    5.0490    0.0000 F   0  0  0  0  0  0  0  0  0  0  0  0
   12.9904    4.5000    0.0000 C   0  0  0  0  0  0  0  0  0  0  0  0
   12.2404    5.7990    0.0000 F   0  0  0  0  0  0  0  0  0  0  0  0
   13.7404    3.2010    0.0000 F   0  0  0  0  0  0  0  0  0  0  0  0
   14.2894    5.2500    0.0000 C   0  0  0  0  0  0  0  0  0  0  0  0
   15.0394    3.9510    0.0000 F   0  0  0  0  0  0  0  0  0  0  0  0
   13.5394    6.5490    0.0000 F   0  0  0  0  0  0  0  0  0  0  0  0
   15.5885    6.0000    0.0000 C   0  0  0  0  0  0  0  0  0  0  0  0
   14.8385    7.2990    0.0000 F   0  0  0  0  0  0  0  0  0  0  0  0
   16.3385    4.7010    0.0000 F   0  0  0  0  0  0  0  0  0  0  0  0
   16.8875    6.7500    0.0000 C   0  0  0  0  0  0  0  0  0  0  0  0
   18.1865    7.5000    0.0000 F   0  0  0  0  0  0  0  0  0  0  0  0
   17.6375    5.4510    0.0000 F   0  0  0  0  0  0  0  0  0  0  0  0
   16.1375    8.0490    0.0000 F   0  0  0  0  0  0  0  0  0  0  0  0
  1  2  2  0
  2  3  1  0
  3  4  2  0
  3  5  1  0
  5  6  1  0
  6  7  1  0
  7  8  1  0
  7  9  1  0
  7 10  1  0
 10 11  1  0
 10 12  1  0
 10 13  1  0
 13 14  1  0
 13 15  1  0
 13 16  1  0
 16 17  1  0
 16 18  1  0
 16 19  1  0
 19 20  1  0
 19 21  1  0
 19 22  1  0
 22 23  1  0
 22 24  1  0
 22 25  1  0
 25 26  1  0
 25 27  1  0
 25 28  1  0
 28 29  1  0
 28 30  1  0
 28 31  1  0
 31 32  1  0
 31 33  1  0
 31 34  1  0
M  END
$$$$

     RDKit          2D

 40 39  0  0  0  0  0  0  0  0999 V2000
   14.1423    4.7010    0.0000 F   0  0  0  0  0  0  0  0  0  0  0  0
   12.8433    3.9510    0.0000 C   0  0  0  0  0  0  0  0  0  0  0  0
   13.5933    2.6519    0.0000 F   0  0  0  0  0  0  0  0  0  0  0  0
   12.0933    5.2500    0.0000 F   0  0  0  0  0  0  0  0  0  0  0  0
   11.5442    3.2010    0.0000 C   0  0  0  0  0  0  0  0  0  0  0  0
   10.7942    4.5000    0.0000 F   0  0  0  0  0  0  0  0  0  0  0  0
   12.2942    1.9019    0.0000 F   0  0  0  0  0  0  0  0  0  0  0  0
   10.2452    2.4510    0.0000 C   0  0  0  0  0  0  0  0  0  0  0  0
   10.9952    1.1519    0.0000 F   0  0  0  0  0  0  0  0  0  0  0  0
    9.4952    3.7500    0.0000 F   0  0  0  0  0  0  0  0  0  0  0  0
    8.9462    1.7010    0.0000 C   0  0  0  0  0  0  0  0  0  0  0  0
    8.1962    3.0000    0.0000 F   0  0  0  0  0  0  0  0  0  0  0  0
    9.6962    0.4019    0.0000 F   0  0  0  0  0  0  0  0  0  0  0  0
    7.6471    0.9510    0.0000 C   0  0  0  0  0  0  0  0  0  0  0  0
    6.8971    2.2500    0.0000 F   0  0  0  0  0  0  0  0  0  0  0  0
    8.3971   -0.3481    0.0000 F   0  0  0  0  0  0  0  0  0  0  0  0
    6.3481    0.2010    0.0000 C   0  0  0  0  0  0  0  0  0  0  0  0
    7.0981   -1.0981    0.0000 F   0  0  0  0  0  0  0  0  0  0  0  0
    5.5981    1.5000    0.0000 F   0  0  0  0  0  0  0  0  0  0  0  0
    5.0490   -0.5490    0.0000 C   0  0  0  0  0  0  0  0  0  0  0  0
    4.2990    0.7500    0.0000 F   0  0  0  0  0  0  0  0  0  0  0  0
    5.7990   -1.8481    0.0000 F   0  0  0  0  0  0  0  0  0  0  0  0
    3.7500   -1.2990    0.0000 C   0  0  0  0  0  0  0  0  0  0  0  0
    2.4510   -2.0490    0.0000 F   0  0  0  0  0  0  0  0  0  0  0  0
    4.5000   -2.5981    0.0000 F   0  0  0  0  0  0  0  0  0  0  0  0
    3.0000    0.0000    0.0000 I   0  0  0  0  0  0  0  0  0  0  0  0
    1.5000    0.0000    0.0000 C   0  0  0  0  0  0  0  0  0  0  0  0
    0.7500   -1.2990    0.0000 C   0  0  0  0  0  0  0  0  0  0  0  0
   -0.7500   -1.2990    0.0000 C   0  0  0  0  0  0  0  0  0  0  0  0
   -1.5000    0.0000    0.0000 C   0  0  0  0  0  0  0  0  0  0  0  0
   -0.7500    1.2990    0.0000 C   0  0  0  0  0  0  0  0  0  0  0  0
    0.7500    1.2990    0.0000 C   0  0  0  0  0  0  0  0  0  0  0  0
   -1.5000    7.7500    0.0000 O   0  0  0  0  0  0  0  0  0  0  0  0
   -0.0000    7.7500    0.0000 S   0  0  0  0  0  0  0  0  0  0  0  0
    1.5000    7.7500    0.0000 O   0  0  0  0  0  0  0  0  0  0  0  0
   -0.0000    6.2500    0.0000 O   0  0  0  0  0  0  0  0  0  0  0  0
    0.0000    9.2500    0.0000 C   0  0  0  0  0  0  0  0  0  0  0  0
    1.5000    9.2500    0.0000 F   0  0  0  0  0  0  0  0  0  0  0  0
   -1.5000    9.2500    0.0000 F   0  0  0  0  0  0  0  0  0  0  0  0
    0.0000   10.7500    0.0000 F   0  0  0  0  0  0  0  0  0  0  0  0
  1  2  1  0
  2  3  1  0
  2  4  1  0
  2  5  1  0
  5  6  1  0
  5  7  1  0
  5  8  1  0
  8  9  1  0
  8 10  1  0
  8 11  1  0
 11 12  1  0
 11 13  1  0
 11 14  1  0
 14 15  1  0
 14 16  1  0
 14 17  1  0
 17 18  1  0
 17 19  1  0
 17 20  1  0
 20 21  1  0
 20 22  1  0
 20 23  1  0
 23 24  1  0
 23 25  1  0
 23 26  1  0
 26 27  1  0
 27 28  2  0
 28 29  1  0
 29 30  2  0
 30 31  1  0
 31 32  2  0
 33 34  2  0
 34 35  2  0
 34 36  1  0
 34 37  1  0
 37 38  1  0
 37 39  1  0
 37 40  1  0
 32 27  1  0
M  CHG  2  26   1  36  -1
M  END
$$$$

     RDKit          2D

 26 25  0  0  0  0  0  0  0  0999 V2000
    0.0000    0.0000    0.0000 C   0  0  0  0  0  0  0  0  0  0  0  0
    1.2990    0.7500    0.0000 O   0  0  0  0  0  0  0  0  0  0  0  0
    2.5981   -0.0000    0.0000 C   0  0  0  0  0  0  0  0  0  0  0  0
    2.5981   -1.5000    0.0000 O   0  0  0  0  0  0  0  0  0  0  0  0
    3.8971    0.7500    0.0000 C   0  0  0  0  0  0  0  0  0  0  0  0
    4.6471   -0.5490    0.0000 F   0  0  0  0  0  0  0  0  0  0  0  0
    3.1471    2.0490    0.0000 F   0  0  0  0  0  0  0  0  0  0  0  0
    5.1962    1.5000    0.0000 O   0  0  0  0  0  0  0  0  0  0  0  0
    5.1962    3.0000    0.0000 C   0  0  0  0  0  0  0  0  0  0  0  0
    3.6962    3.0000    0.0000 F   0  0  0  0  0  0  0  0  0  0  0  0
    6.6962    3.0000    0.0000 F   0  0  0  0  0  0  0  0  0  0  0  0
    5.1962    4.5000    0.0000 C   0  0  0  0  0  0  0  0  0  0  0  0
    3.6962    4.5000    0.0000 F   0  0  0  0  0  0  0  0  0  0  0  0
    6.6962    4.5000    0.0000 F   0  0  0  0  0  0  0  0  0  0  0  0
    5.1962    6.0000    0.0000 O   0  0  0  0  0  0  0  0  0  0  0  0
    6.4952    6.7500    0.0000 C   0  0  0  0  0  0  0  0  0  0  0  0
    7.2452    5.4510    0.0000 F   0  0  0  0  0  0  0  0  0  0  0  0
    5.7452    8.0490    0.0000 F   0  0  0  0  0  0  0  0  0  0  0  0
    7.7942    7.5000    0.0000 C   0  0  0  0  0  0  0  0  0  0  0  0
    8.5442    6.2010    0.0000 F   0  0  0  0  0  0  0  0  0  0  0  0
    7.0442    8.7990    0.0000 F   0  0  0  0  0  0  0  0  0  0  0  0
    9.0933    8.2500    0.0000 O   0  0  0  0  0  0  0  0  0  0  0  0
    9.0933    9.7500    0.0000 C   0  0  0  0  0  0  0  0  0  0  0  0
    9.0933   11.2500    0.0000 F   0  0  0  0  0  0  0  0  0  0  0  0
   10.5933    9.7500    0.0000 F   0  0  0  0  0  0  0  0  0  0  0  0
    7.5933    9.7500    0.0000 F   0  0  0  0  0  0  0  0  0  0  0  0
  1  2  1  0
  2  3  1  0
  3  4  2  0
  3  5  1  0
  5  6  1  0
  5  7  1  0
  5  8  1  0
  8  9  1  0
  9 10  1  0
  9 11  1  0
  9 12  1  0
 12 13  1  0
 12 14  1  0
 12 15  1  0
 15 16  1  0
 16 17  1  0
 16 18  1  0
 16 19  1  0
 19 20  1  0
 19 21  1  0
 19 22  1  0
 22 23  1  0
 23 24  1  0
 23 25  1  0
 23 26  1  0
M  END
$$$$

     RDKit          2D

 31 30  0  0  0  0  0  0  0  0999 V2000
   -1.2990    0.7500    0.0000 O   0  0  0  0  0  0  0  0  0  0  0  0
    0.0000    0.0000    0.0000 C   0  0  0  0  0  0  0  0  0  0  0  0
   -0.0000   -1.5000    0.0000 O   0  0  0  0  0  0  0  0  0  0  0  0
   -1.2990   -2.2500    0.0000 C   0  0  0  0  0  0  0  0  0  0  0  0
   -2.5981   -1.5000    0.0000 O   0  0  0  0  0  0  0  0  0  0  0  0
   -1.2990   -3.7500    0.0000 C   0  0  0  0  0  0  0  0  0  0  0  0
   -2.7990   -3.7500    0.0000 F   0  0  0  0  0  0  0  0  0  0  0  0
    0.2010   -3.7500    0.0000 F   0  0  0  0  0  0  0  0  0  0  0  0
   -1.2990   -5.2500    0.0000 C   0  0  0  0  0  0  0  0  0  0  0  0
    0.2010   -5.2500    0.0000 F   0  0  0  0  0  0  0  0  0  0  0  0
   -2.7990   -5.2500    0.0000 F   0  0  0  0  0  0  0  0  0  0  0  0
   -1.2990   -6.7500    0.0000 C   0  0  0  0  0  0  0  0  0  0  0  0
   -2.7990   -6.7500    0.0000 F   0  0  0  0  0  0  0  0  0  0  0  0
    0.2010   -6.7500    0.0000 F   0  0  0  0  0  0  0  0  0  0  0  0
   -1.2990   -8.2500    0.0000 C   0  0  0  0  0  0  0  0  0  0  0  0
   -1.2990   -9.7500    0.0000 F   0  0  0  0  0  0  0  0  0  0  0  0
    0.2010   -8.2500    0.0000 F   0  0  0  0  0  0  0  0  0  0  0  0
   -2.7990   -8.2500    0.0000 F   0  0  0  0  0  0  0  0  0  0  0  0
    1.2990    0.7500    0.0000 C   0  0  0  0  0  0  0  0  0  0  0  0
    2.0490   -0.5490    0.0000 F   0  0  0  0  0  0  0  0  0  0  0  0
    0.5490    2.0490    0.0000 F   0  0  0  0  0  0  0  0  0  0  0  0
    2.5981    1.5000    0.0000 C   0  0  0  0  0  0  0  0  0  0  0  0
    1.8481    2.7990    0.0000 F   0  0  0  0  0  0  0  0  0  0  0  0
    3.3481    0.2010    0.0000 F   0  0  0  0  0  0  0  0  0  0  0  0
    3.8971    2.2500    0.0000 C   0  0  0  0  0  0  0  0  0  0  0  0
    4.6471    0.9510    0.0000 F   0  0  0  0  0  0  0  0  0  0  0  0
    3.1471    3.5490    0.0000 F   0  0  0  0  0  0  0  0  0  0  0  0
    5.1962    3.0000    0.0000 C   0  0  0  0  0  0  0  0  0  0  0  0
    6.4952    3.7500    0.0000 F   0  0  0  0  0  0  0  0  0  0  0  0
    4.4462    4.2990    0.0000 F   0  0  0  0  0  0  0  0  0  0  0  0
    5.9462    1.7010    0.0000 F   0  0  0  0  0  0  0  0  0  0  0  0
  1  2  2  0
  2  3  1  0
  3  4  1  0
  4  5  2  0
  4  6  1  0
  6  7  1  0
  6  8  1  0
  6  9  1  0
  9 10  1  0
  9 11  1  0
  9 12  1  0
 12 13  1  0
 12 14  1  0
 12 15  1  0
 15 16  1  0
 15 17  1  0
 15 18  1  0
  2 19  1  0
 19 20  1  0
 19 21  1  0
 19 22  1  0
 22 23  1  0
 22 24  1  0
 22 25  1  0
 25 26  1  0
 25 27  1  0
 25 28  1  0
 28 29  1  0
 28 30  1  0
 28 31  1  0
M  END
$$$$

     RDKit          2D

 12 11  0  0  0  0  0  0  0  0999 V2000
   -0.2010    3.3481    0.0000 F   0  0  0  0  0  0  0  0  0  0  0  0
    0.5490    2.0490    0.0000 C   0  0  0  0  0  0  0  0  0  0  0  0
    1.8481    2.7990    0.0000 F   0  0  0  0  0  0  0  0  0  0  0  0
   -0.7500    1.2990    0.0000 F   0  0  0  0  0  0  0  0  0  0  0  0
    1.2990    0.7500    0.0000 C   0  0  0  0  0  0  0  0  0  0  0  0
    2.5981    1.5000    0.0000 I   0  0  0  0  0  0  0  0  0  0  0  0
   -0.0000    0.0000    0.0000 C   0  0  0  0  0  0  0  0  0  0  0  0
   -0.1828   -1.4888    0.0000 Cl  0  0  0  0  0  0  0  0  0  0  0  0
    2.0490   -0.5490    0.0000 C   0  0  0  0  0  0  0  0  0  0  0  0
    2.7990   -1.8481    0.0000 F   0  0  0  0  0  0  0  0  0  0  0  0
    0.8511   -1.4518    0.0000 F   0  0  0  0  0  0  0  0  0  0  0  0
    3.3481    0.2010    0.0000 F   0  0  0  0  0  0  0  0  0  0  0  0
  1  2  1  0
  2  3  1  0
  2  4  1  0
  2  5  1  0
  5  6  1  0
  5  7  1  0
  7  8  1  0
  5  9  1  0
  9 10  1  0
  9 11  1  0
  9 12  1  0
M  END
$$$$

     RDKit          2D

 32 31  0  0  0  0  0  0  0  0999 V2000
   -1.5000    0.0000    0.0000 F   0  0  0  0  0  0  0  0  0  0  0  0
    0.0000    0.0000    0.0000 C   0  0  0  0  0  0  0  0  0  0  0  0
    0.0000    1.5000    0.0000 F   0  0  0  0  0  0  0  0  0  0  0  0
   -0.0000   -1.5000    0.0000 Cl  0  0  0  0  0  0  0  0  0  0  0  0
    1.5000    0.0000    0.0000 C   0  0  0  0  0  0  0  0  0  0  0  0
    1.5000    1.5000    0.0000 F   0  0  0  0  0  0  0  0  0  0  0  0
    1.5000   -1.5000    0.0000 F   0  0  0  0  0  0  0  0  0  0  0  0
    3.0000    0.0000    0.0000 C   0  0  0  0  0  0  0  0  0  0  0  0
    3.0000   -1.5000    0.0000 F   0  0  0  0  0  0  0  0  0  0  0  0
    3.0000    1.5000    0.0000 F   0  0  0  0  0  0  0  0  0  0  0  0
    4.5000    0.0000    0.0000 C   0  0  0  0  0  0  0  0  0  0  0  0
    4.5000    1.5000    0.0000 F   0  0  0  0  0  0  0  0  0  0  0  0
    4.5000   -1.5000    0.0000 F   0  0  0  0  0  0  0  0  0  0  0  0
    6.0000    0.0000    0.0000 C   0  0  0  0  0  0  0  0  0  0  0  0
    6.0000   -1.5000    0.0000 F   0  0  0  0  0  0  0  0  0  0  0  0
    6.0000    1.5000    0.0000 F   0  0  0  0  0  0  0  0  0  0  0  0
    7.5000    0.0000    0.0000 C   0  0  0  0  0  0  0  0  0  0  0  0
    7.5000   -1.5000    0.0000 F   0  0  0  0  0  0  0  0  0  0  0  0
    7.5000    1.5000    0.0000 F   0  0  0  0  0  0  0  0  0  0  0  0
    9.0000    0.0000    0.0000 C   0  0  0  0  0  0  0  0  0  0  0  0
    9.0000    1.5000    0.0000 F   0  0  0  0  0  0  0  0  0  0  0  0
    9.0000   -1.5000    0.0000 F   0  0  0  0  0  0  0  0  0  0  0  0
   10.5000    0.0000    0.0000 C   0  0  0  0  0  0  0  0  0  0  0  0
   10.5000   -1.5000    0.0000 F   0  0  0  0  0  0  0  0  0  0  0  0
   10.5000    1.5000    0.0000 F   0  0  0  0  0  0  0  0  0  0  0  0
   12.0000    0.0000    0.0000 C   0  0  0  0  0  0  0  0  0  0  0  0
   12.0000    1.5000    0.0000 F   0  0  0  0  0  0  0  0  0  0  0  0
   12.0000   -1.5000    0.0000 F   0  0  0  0  0  0  0  0  0  0  0  0
   13.5000    0.0000    0.0000 C   0  0  0  0  0  0  0  0  0  0  0  0
   15.0000    0.0000    0.0000 F   0  0  0  0  0  0  0  0  0  0  0  0
   13.5000   -1.5000    0.0000 F   0  0  0  0  0  0  0  0  0  0  0  0
   13.5000    1.5000    0.0000 Cl  0  0  0  0  0  0  0  0  0  0  0  0
  1  2  1  0
  2  3  1  0
  2  4  1  0
  2  5  1  0
  5  6  1  0
  5  7  1  0
  5  8  1  0
  8  9  1  0
  8 10  1  0
  8 11  1  0
 11 12  1  0
 11 13  1  0
 11 14  1  0
 14 15  1  0
 14 16  1  0
 14 17  1  0
 17 18  1  0
 17 19  1  0
 17 20  1  0
 20 21  1  0
 20 22  1  0
 20 23  1  0
 23 24  1  0
 23 25  1  0
 23 26  1  0
 26 27  1  0
 26 28  1  0
 26 29  1  0
 29 30  1  0
 29 31  1  0
 29 32  1  0
M  END
$$$$

     RDKit          2D

 24 23  0  0  0  0  0  0  0  0999 V2000
   -1.2990    2.2500    0.0000 O   0  0  0  0  0  0  0  0  0  0  0  0
   -1.2990    0.7500    0.0000 C   0  0  0  0  0  0  0  0  0  0  0  0
   -2.5981    0.0000    0.0000 O   0  0  0  0  0  0  0  0  0  0  0  0
   -0.0000   -0.0000    0.0000 C   0  0  0  0  0  0  0  0  0  0  0  0
    1.2990    0.7500    0.0000 C   0  0  0  0  0  0  0  0  0  0  0  0
    2.5981   -0.0000    0.0000 C   0  0  0  0  0  0  0  0  0  0  0  0
    3.3481    1.2990    0.0000 C   0  0  0  0  0  0  0  0  0  0  0  0
    4.0981    2.5981    0.0000 F   0  0  0  0  0  0  0  0  0  0  0  0
    4.1634    0.9530    0.0000 F   0  0  0  0  0  0  0  0  0  0  0  0
    2.0490    2.0490    0.0000 F   0  0  0  0  0  0  0  0  0  0  0  0
    1.8481   -1.2990    0.0000 C   0  0  0  0  0  0  0  0  0  0  0  0
    1.0981   -2.5981    0.0000 F   0  0  0  0  0  0  0  0  0  0  0  0
    2.5554   -1.8321    0.0000 F   0  0  0  0  0  0  0  0  0  0  0  0
    0.4062   -0.8857    0.0000 F   0  0  0  0  0  0  0  0  0  0  0  0
    3.8971   -0.7500    0.0000 C   0  0  0  0  0  0  0  0  0  0  0  0
    3.5511   -1.5653    0.0000 F   0  0  0  0  0  0  0  0  0  0  0  0
    4.4302   -0.0426    0.0000 F   0  0  0  0  0  0  0  0  0  0  0  0
    5.1962   -1.5000    0.0000 C   0  0  0  0  0  0  0  0  0  0  0  0
    4.4462   -2.7990    0.0000 F   0  0  0  0  0  0  0  0  0  0  0  0
    5.9462   -0.2010    0.0000 F   0  0  0  0  0  0  0  0  0  0  0  0
    6.4952   -2.2500    0.0000 C   0  0  0  0  0  0  0  0  0  0  0  0
    7.7942   -3.0000    0.0000 F   0  0  0  0  0  0  0  0  0  0  0  0
    7.2452   -0.9510    0.0000 F   0  0  0  0  0  0  0  0  0  0  0  0
    5.7452   -3.5490    0.0000 F   0  0  0  0  0  0  0  0  0  0  0  0
  1  2  2  0
  2  3  1  0
  2  4  1  0
  4  5  1  0
  5  6  1  0
  6  7  1  0
  7  8  1  0
  7  9  1  0
  7 10  1  0
  6 11  1  0
 11 12  1  0
 11 13  1  0
 11 14  1  0
  6 15  1  0
 15 16  1  0
 15 17  1  0
 15 18  1  0
 18 19  1  0
 18 20  1  0
 18 21  1  0
 21 22  1  0
 21 23  1  0
 21 24  1  0
M  END
$$$$

     RDKit          2D

 15 14  0  0  0  0  0  0  0  0999 V2000
   -1.2990    2.2500    0.0000 O   0  0  0  0  0  0  0  0  0  0  0  0
   -1.2990    0.7500    0.0000 C   0  0  0  0  0  0  0  0  0  0  0  0
   -2.5981    0.0000    0.0000 O   0  0  0  0  0  0  0  0  0  0  0  0
    0.0000    0.0000    0.0000 C   0  0  0  0  0  0  0  0  0  0  0  0
    1.2990    0.7500    0.0000 C   0  0  0  0  0  0  0  0  0  0  0  0
    2.5981   -0.0000    0.0000 C   0  0  0  0  0  0  0  0  0  0  0  0
    3.3481    1.2990    0.0000 F   0  0  0  0  0  0  0  0  0  0  0  0
    1.8481   -1.2990    0.0000 F   0  0  0  0  0  0  0  0  0  0  0  0
    3.8971   -0.7500    0.0000 C   0  0  0  0  0  0  0  0  0  0  0  0
    3.1471   -2.0490    0.0000 F   0  0  0  0  0  0  0  0  0  0  0  0
    4.6471    0.5490    0.0000 F   0  0  0  0  0  0  0  0  0  0  0  0
    5.1962   -1.5000    0.0000 C   0  0  0  0  0  0  0  0  0  0  0  0
    6.4952   -2.2500    0.0000 F   0  0  0  0  0  0  0  0  0  0  0  0
    5.9462   -0.2010    0.0000 F   0  0  0  0  0  0  0  0  0  0  0  0
    4.4462   -2.7990    0.0000 F   0  0  0  0  0  0  0  0  0  0  0  0
  1  2  2  0
  2  3  1  0
  2  4  1  0
  4  5  1  0
  5  6  1  0
  6  7  1  0
  6  8  1  0
  6  9  1  0
  9 10  1  0
  9 11  1  0
  9 12  1  0
 12 13  1  0
 12 14  1  0
 12 15  1  0
M  END
$$$$

     RDKit          2D

 17 17  0  0  0  0  0  0  0  0999 V2000
    7.5000    0.0000    0.0000 F   0  0  0  0  0  0  0  0  0  0  0  0
    6.0000    0.0000    0.0000 C   0  0  0  0  0  0  0  0  0  0  0  0
    6.0000   -1.5000    0.0000 F   0  0  0  0  0  0  0  0  0  0  0  0
    6.0000    1.5000    0.0000 F   0  0  0  0  0  0  0  0  0  0  0  0
    4.5000    0.0000    0.0000 C   0  0  0  0  0  0  0  0  0  0  0  0
    4.5000    1.5000    0.0000 F   0  0  0  0  0  0  0  0  0  0  0  0
    4.5000   -1.5000    0.0000 F   0  0  0  0  0  0  0  0  0  0  0  0
    3.0000    0.0000    0.0000 C   0  0  0  0  0  0  0  0  0  0  0  0
    3.0000   -1.5000    0.0000 F   0  0  0  0  0  0  0  0  0  0  0  0
    3.0000    1.5000    0.0000 F   0  0  0  0  0  0  0  0  0  0  0  0
    1.5000    0.0000    0.0000 C   0  0  0  0  0  0  0  0  0  0  0  0
    0.7500   -1.2990    0.0000 C   0  0  0  0  0  0  0  0  0  0  0  0
   -0.7500   -1.2990    0.0000 C   0  0  0  0  0  0  0  0  0  0  0  0
   -1.5000    0.0000    0.0000 C   0  0  0  0  0  0  0  0  0  0  0  0
   -0.7500    1.2990    0.0000 C   0  0  0  0  0  0  0  0  0  0  0  0
    0.7500    1.2990    0.0000 C   0  0  0  0  0  0  0  0  0  0  0  0
    1.5000    2.5981    0.0000 I   0  0  0  0  0  0  0  0  0  0  0  0
  1  2  1  0
  2  3  1  0
  2  4  1  0
  2  5  1  0
  5  6  1  0
  5  7  1  0
  5  8  1  0
  8  9  1  0
  8 10  1  0
 11  8  1  1
 11 12  1  0
 12 13  1  0
 13 14  1  0
 14 15  1  0
 15 16  1  0
 16 17  1  1
 16 11  1  0
M  END
$$$$

     RDKit          2D

 33 34  0  0  0  0  0  0  0  0999 V2000
    6.0000    0.0000    0.0000 C   0  0  0  0  0  0  0  0  0  0  0  0
    5.2500   -1.2990    0.0000 C   0  0  0  0  0  0  0  0  0  0  0  0
    6.0000   -2.5981    0.0000 C   0  0  0  0  0  0  0  0  0  0  0  0
    3.7500   -1.2990    0.0000 C   0  0  0  0  0  0  0  0  0  0  0  0
    3.0000   -2.5981    0.0000 O   0  0  0  0  0  0  0  0  0  0  0  0
    3.0000    0.0000    0.0000 O   0  0  0  0  0  0  0  0  0  0  0  0
    1.5000    0.0000    0.0000 C   0  0  0  0  0  0  0  0  0  0  0  0
    0.7500   -1.2990    0.0000 C   0  0  0  0  0  0  0  0  0  0  0  0
   -0.7500   -1.2990    0.0000 C   0  0  0  0  0  0  0  0  0  0  0  0
   -1.5000    0.0000    0.0000 C   0  0  0  0  0  0  0  0  0  0  0  0
   -3.0000    0.0000    0.0000 C   0  0  0  0  0  0  0  0  0  0  0  0
   -4.5000    0.0000    0.0000 C   0  0  0  0  0  0  0  0  0  0  0  0
   -5.2500    1.2990    0.0000 C   0  0  0  0  0  0  0  0  0  0  0  0
   -6.7500    1.2990    0.0000 C   0  0  0  0  0  0  0  0  0  0  0  0
   -7.5000    0.0000    0.0000 C   0  0  0  0  0  0  0  0  0  0  0  0
   -9.0000    0.0000    0.0000 O   0  0  0  0  0  0  0  0  0  0  0  0
   -9.7500    1.2990    0.0000 C   0  0  0  0  0  0  0  0  0  0  0  0
   -9.0000    2.5981    0.0000 O   0  0  0  0  0  0  0  0  0  0  0  0
  -11.2500    1.2990    0.0000 C   0  0  0  0  0  0  0  0  0  0  0  0
  -12.0000    0.0000    0.0000 C   0  0  0  0  0  0  0  0  0  0  0  0
  -12.0000    2.5981    0.0000 C   0  0  0  0  0  0  0  0  0  0  0  0
   -6.7500   -1.2990    0.0000 C   0  0  0  0  0  0  0  0  0  0  0  0
   -5.2500   -1.2990    0.0000 C   0  0  0  0  0  0  0  0  0  0  0  0
   -3.0000    1.5000    0.0000 C   0  0  0  0  0  0  0  0  0  0  0  0
   -3.0000    3.0000    0.0000 F   0  0  0  0  0  0  0  0  0  0  0  0
   -4.4554    1.8630    0.0000 F   0  0  0  0  0  0  0  0  0  0  0  0
   -1.5446    1.8630    0.0000 F   0  0  0  0  0  0  0  0  0  0  0  0
   -3.0000   -1.5000    0.0000 C   0  0  0  0  0  0  0  0  0  0  0  0
   -3.0000   -3.0000    0.0000 F   0  0  0  0  0  0  0  0  0  0  0  0
   -4.4554   -1.8630    0.0000 F   0  0  0  0  0  0  0  0  0  0  0  0
   -1.5446   -1.8630    0.0000 F   0  0  0  0  0  0  0  0  0  0  0  0
   -0.7500    1.2990    0.0000 C   0  0  0  0  0  0  0  0  0  0  0  0
    0.7500    1.2990    0.0000 C   0  0  0  0  0  0  0  0  0  0  0  0
  1  2  2  0
  2  3  1  0
  2  4  1  0
  4  5  2  0
  4  6  1  0
  6  7  1  0
  7  8  2  0
  8  9  1  0
  9 10  2  0
 10 11  1  0
 11 12  1  0
 12 13  2  0
 13 14  1  0
 14 15  2  0
 15 16  1  0
 16 17  1  0
 17 18  2  0
 17 19  1  0
 19 20  2  0
 19 21  1  0
 15 22  1  0
 22 23  2  0
 11 24  1  0
 24 25  1  0
 24 26  1  0
 24 27  1  0
 11 28  1  0
 28 29  1  0
 28 30  1  0
 28 31  1  0
 10 32  1  0
 32 33  2  0
 33  7  1  0
 23 12  1  0
M  END
$$$$

     RDKit          2D

 13 12  0  0  0  0  0  0  0  0999 V2000
    0.0000    0.0000    0.0000 C   0  0  0  0  0  0  0  0  0  0  0  0
    1.2990    0.7500    0.0000 O   0  0  0  0  0  0  0  0  0  0  0  0
    2.5981   -0.0000    0.0000 C   0  0  0  0  0  0  0  0  0  0  0  0
    2.5981   -1.5000    0.0000 O   0  0  0  0  0  0  0  0  0  0  0  0
    3.8971    0.7500    0.0000 C   0  0  0  0  0  0  0  0  0  0  0  0
    4.6471   -0.5490    0.0000 F   0  0  0  0  0  0  0  0  0  0  0  0
    3.1471    2.0490    0.0000 F   0  0  0  0  0  0  0  0  0  0  0  0
    5.1962    1.5000    0.0000 C   0  0  0  0  0  0  0  0  0  0  0  0
    5.9462    0.2010    0.0000 F   0  0  0  0  0  0  0  0  0  0  0  0
    4.4462    2.7990    0.0000 F   0  0  0  0  0  0  0  0  0  0  0  0
    6.4952    2.2500    0.0000 C   0  0  0  0  0  0  0  0  0  0  0  0
    7.7942    1.5000    0.0000 F   0  0  0  0  0  0  0  0  0  0  0  0
    6.4952    3.7500    0.0000 F   0  0  0  0  0  0  0  0  0  0  0  0
  1  2  1  0
  2  3  1  0
  3  4  2  0
  3  5  1  0
  5  6  1  0
  5  7  1  0
  5  8  1  0
  8  9  1  0
  8 10  1  0
  8 11  1  0
 11 12  1  0
 11 13  1  0
M  END
$$$$

     RDKit          2D

 56 55  0  0  0  0  0  0  0  0999 V2000
    0.0000    0.0000    0.0000 C   0  0  0  0  0  0  0  0  0  0  0  0
    1.2990    0.7500    0.0000 O   0  0  0  0  0  0  0  0  0  0  0  0
    2.5981   -0.0000    0.0000 C   0  0  0  0  0  0  0  0  0  0  0  0
    2.5981   -1.5000    0.0000 O   0  0  0  0  0  0  0  0  0  0  0  0
    3.8971    0.7500    0.0000 C   0  0  0  0  0  0  0  0  0  0  0  0
    4.6471   -0.5490    0.0000 F   0  0  0  0  0  0  0  0  0  0  0  0
    3.1471    2.0490    0.0000 F   0  0  0  0  0  0  0  0  0  0  0  0
    5.1962    1.5000    0.0000 C   0  0  0  0  0  0  0  0  0  0  0  0
    4.4462    2.7990    0.0000 F   0  0  0  0  0  0  0  0  0  0  0  0
    5.9462    0.2010    0.0000 F   0  0  0  0  0  0  0  0  0  0  0  0
    6.4952    2.2500    0.0000 C   0  0  0  0  0  0  0  0  0  0  0  0
    7.2452    0.9510    0.0000 F   0  0  0  0  0  0  0  0  0  0  0  0
    5.7452    3.5490    0.0000 F   0  0  0  0  0  0  0  0  0  0  0  0
    7.7942    3.0000    0.0000 C   0  0  0  0  0  0  0  0  0  0  0  0
    7.0442    4.2990    0.0000 F   0  0  0  0  0  0  0  0  0  0  0  0
    8.5442    1.7010    0.0000 F   0  0  0  0  0  0  0  0  0  0  0  0
    9.0933    3.7500    0.0000 C   0  0  0  0  0  0  0  0  0  0  0  0
    9.8433    2.4510    0.0000 F   0  0  0  0  0  0  0  0  0  0  0  0
    8.3433    5.0490    0.0000 F   0  0  0  0  0  0  0  0  0  0  0  0
   10.3923    4.5000    0.0000 C   0  0  0  0  0  0  0  0  0  0  0  0
    9.6423    5.7990    0.0000 F   0  0  0  0  0  0  0  0  0  0  0  0
   11.1423    3.2010    0.0000 F   0  0  0  0  0  0  0  0  0  0  0  0
   11.6913    5.2500    0.0000 C   0  0  0  0  0  0  0  0  0  0  0  0
   12.4413    3.9510    0.0000 F   0  0  0  0  0  0  0  0  0  0  0  0
   10.9413    6.5490    0.0000 F   0  0  0  0  0  0  0  0  0  0  0  0
   12.9904    6.0000    0.0000 C   0  0  0  0  0  0  0  0  0  0  0  0
   12.2404    7.2990    0.0000 F   0  0  0  0  0  0  0  0  0  0  0  0
   13.7404    4.7010    0.0000 F   0  0  0  0  0  0  0  0  0  0  0  0
   14.2894    6.7500    0.0000 C   0  0  0  0  0  0  0  0  0  0  0  0
   15.0394    5.4510    0.0000 F   0  0  0  0  0  0  0  0  0  0  0  0
   13.5394    8.0490    0.0000 F   0  0  0  0  0  0  0  0  0  0  0  0
   15.5885    7.5000    0.0000 C   0  0  0  0  0  0  0  0  0  0  0  0
   14.8385    8.7990    0.0000 F   0  0  0  0  0  0  0  0  0  0  0  0
   16.3385    6.2010    0.0000 F   0  0  0  0  0  0  0  0  0  0  0  0
   16.8875    8.2500    0.0000 C   0  0  0  0  0  0  0  0  0  0  0  0
   17.6375    6.9510    0.0000 F   0  0  0  0  0  0  0  0  0  0  0  0
   16.1375    9.5490    0.0000 F   0  0  0  0  0  0  0  0  0  0  0  0
   18.1865    9.0000    0.0000 C   0  0  0  0  0  0  0  0  0  0  0  0
   17.4365   10.2990    0.0000 F   0  0  0  0  0  0  0  0  0  0  0  0
   18.9365    7.7010    0.0000 F   0  0  0  0  0  0  0  0  0  0  0  0
   19.4856    9.7500    0.0000 C   0  0  0  0  0  0  0  0  0  0  0  0
   20.2356    8.4510    0.0000 F   0  0  0  0  0  0  0  0  0  0  0  0
   18.7356   11.0490    0.0000 F   0  0  0  0  0  0  0  0  0  0  0  0
   20.7846   10.5000    0.0000 C   0  0  0  0  0  0  0  0  0  0  0  0
   20.0346   11.7990    0.0000 F   0  0  0  0  0  0  0  0  0  0  0  0
   21.5346    9.2010    0.0000 F   0  0  0  0  0  0  0  0  0  0  0  0
   22.0836   11.2500    0.0000 C   0  0  0  0  0  0  0  0  0  0  0  0
   22.8336    9.9510    0.0000 F   0  0  0  0  0  0  0  0  0  0  0  0
   21.3336   12.5490    0.0000 F   0  0  0  0  0  0  0  0  0  0  0  0
   23.3827   12.0000    0.0000 C   0  0  0  0  0  0  0  0  0  0  0  0
   22.6327   13.2990    0.0000 F   0  0  0  0  0  0  0  0  0  0  0  0
   24.1327   10.7010    0.0000 F   0  0  0  0  0  0  0  0  0  0  0  0
   24.6817   12.7500    0.0000 C   0  0  0  0  0  0  0  0  0  0  0  0
   25.9808   13.5000    0.0000 F   0  0  0  0  0  0  0  0  0  0  0  0
   25.4317   11.4510    0.0000 F   0  0  0  0  0  0  0  0  0  0  0  0
   23.9317   14.0490    0.0000 F   0  0  0  0  0  0  0  0  0  0  0  0
  1  2  1  0
  2  3  1  0
  3  4  2  0
  3  5  1  0
  5  6  1  0
  5  7  1  0
  5  8  1  0
  8  9  1  0
  8 10  1  0
  8 11  1  0
 11 12  1  0
 11 13  1  0
 11 14  1  0
 14 15  1  0
 14 16  1  0
 14 17  1  0
 17 18  1  0
 17 19  1  0
 17 20  1  0
 20 21  1  0
 20 22  1  0
 20 23  1  0
 23 24  1  0
 23 25  1  0
 23 26  1  0
 26 27  1  0
 26 28  1  0
 26 29  1  0
 29 30  1  0
 29 31  1  0
 29 32  1  0
 32 33  1  0
 32 34  1  0
 32 35  1  0
 35 36  1  0
 35 37  1  0
 35 38  1  0
 38 39  1  0
 38 40  1  0
 38 41  1  0
 41 42  1  0
 41 43  1  0
 41 44  1  0
 44 45  1  0
 44 46  1  0
 44 47  1  0
 47 48  1  0
 47 49  1  0
 47 50  1  0
 50 51  1  0
 50 52  1  0
 50 53  1  0
 53 54  1  0
 53 55  1  0
 53 56  1  0
M  END
$$$$

     RDKit          2D

 35 34  0  0  0  0  0  0  0  0999 V2000
    0.0000    0.0000    0.0000 C   0  0  0  0  0  0  0  0  0  0  0  0
    1.2990    0.7500    0.0000 O   0  0  0  0  0  0  0  0  0  0  0  0
    2.5981   -0.0000    0.0000 C   0  0  0  0  0  0  0  0  0  0  0  0
    2.5981   -1.5000    0.0000 O   0  0  0  0  0  0  0  0  0  0  0  0
    3.8971    0.7500    0.0000 C   0  0  0  0  0  0  0  0  0  0  0  0
    4.6471   -0.5490    0.0000 F   0  0  0  0  0  0  0  0  0  0  0  0
    3.1471    2.0490    0.0000 F   0  0  0  0  0  0  0  0  0  0  0  0
    5.1962    1.5000    0.0000 C   0  0  0  0  0  0  0  0  0  0  0  0
    4.4462    2.7990    0.0000 F   0  0  0  0  0  0  0  0  0  0  0  0
    5.9462    0.2010    0.0000 F   0  0  0  0  0  0  0  0  0  0  0  0
    6.4952    2.2500    0.0000 C   0  0  0  0  0  0  0  0  0  0  0  0
    7.2452    0.9510    0.0000 F   0  0  0  0  0  0  0  0  0  0  0  0
    5.7452    3.5490    0.0000 F   0  0  0  0  0  0  0  0  0  0  0  0
    7.7942    3.0000    0.0000 C   0  0  0  0  0  0  0  0  0  0  0  0
    7.0442    4.2990    0.0000 F   0  0  0  0  0  0  0  0  0  0  0  0
    8.5442    1.7010    0.0000 F   0  0  0  0  0  0  0  0  0  0  0  0
    9.0933    3.7500    0.0000 C   0  0  0  0  0  0  0  0  0  0  0  0
    9.8433    2.4510    0.0000 F   0  0  0  0  0  0  0  0  0  0  0  0
    8.3433    5.0490    0.0000 F   0  0  0  0  0  0  0  0  0  0  0  0
   10.3923    4.5000    0.0000 C   0  0  0  0  0  0  0  0  0  0  0  0
    9.6423    5.7990    0.0000 F   0  0  0  0  0  0  0  0  0  0  0  0
   11.1423    3.2010    0.0000 F   0  0  0  0  0  0  0  0  0  0  0  0
   11.6913    5.2500    0.0000 C   0  0  0  0  0  0  0  0  0  0  0  0
   12.4413    3.9510    0.0000 F   0  0  0  0  0  0  0  0  0  0  0  0
   10.9413    6.5490    0.0000 F   0  0  0  0  0  0  0  0  0  0  0  0
   12.9904    6.0000    0.0000 C   0  0  0  0  0  0  0  0  0  0  0  0
   12.2404    7.2990    0.0000 F   0  0  0  0  0  0  0  0  0  0  0  0
   13.7404    4.7010    0.0000 F   0  0  0  0  0  0  0  0  0  0  0  0
   14.2894    6.7500    0.0000 C   0  0  0  0  0  0  0  0  0  0  0  0
   15.0394    5.4510    0.0000 F   0  0  0  0  0  0  0  0  0  0  0  0
   13.5394    8.0490    0.0000 F   0  0  0  0  0  0  0  0  0  0  0  0
   15.5885    7.5000    0.0000 C   0  0  0  0  0  0  0  0  0  0  0  0
   16.8875    8.2500    0.0000 F   0  0  0  0  0  0  0  0  0  0  0  0
   14.8385    8.7990    0.0000 F   0  0  0  0  0  0  0  0  0  0  0  0
   16.3385    6.2010    0.0000 F   0  0  0  0  0  0  0  0  0  0  0  0
  1  2  1  0
  2  3  1  0
  3  4  2  0
  3  5  1  0
  5  6  1  0
  5  7  1  0
  5  8  1  0
  8  9  1  0
  8 10  1  0
  8 11  1  0
 11 12  1  0
 11 13  1  0
 11 14  1  0
 14 15  1  0
 14 16  1  0
 14 17  1  0
 17 18  1  0
 17 19  1  0
 17 20  1  0
 20 21  1  0
 20 22  1  0
 20 23  1  0
 23 24  1  0
 23 25  1  0
 23 26  1  0
 26 27  1  0
 26 28  1  0
 26 29  1  0
 29 30  1  0
 29 31  1  0
 29 32  1  0
 32 33  1  0
 32 34  1  0
 32 35  1  0
M  END
$$$$

     RDKit          2D

 20 19  0  0  0  0  0  0  0  0999 V2000
   -1.2990    0.7500    0.0000 O   0  0  0  0  0  0  0  0  0  0  0  0
    0.0000    0.0000    0.0000 C   0  0  0  0  0  0  0  0  0  0  0  0
    1.2990    0.7500    0.0000 C   0  0  0  0  0  0  0  0  0  0  0  0
    2.5981   -0.0000    0.0000 C   0  0  0  0  0  0  0  0  0  0  0  0
    3.8971    0.7500    0.0000 C   0  0  0  0  0  0  0  0  0  0  0  0
    5.1962   -0.0000    0.0000 C   0  0  0  0  0  0  0  0  0  0  0  0
    6.4952    0.7500    0.0000 C   0  0  0  0  0  0  0  0  0  0  0  0
    7.7942   -0.0000    0.0000 C   0  0  0  0  0  0  0  0  0  0  0  0
    8.5442    1.2990    0.0000 F   0  0  0  0  0  0  0  0  0  0  0  0
    7.0442   -1.2990    0.0000 F   0  0  0  0  0  0  0  0  0  0  0  0
    9.0933   -0.7500    0.0000 C   0  0  0  0  0  0  0  0  0  0  0  0
    8.3433   -2.0490    0.0000 F   0  0  0  0  0  0  0  0  0  0  0  0
    9.8433    0.5490    0.0000 F   0  0  0  0  0  0  0  0  0  0  0  0
   10.3923   -1.5000    0.0000 C   0  0  0  0  0  0  0  0  0  0  0  0
   11.1423   -0.2010    0.0000 F   0  0  0  0  0  0  0  0  0  0  0  0
    9.6423   -2.7990    0.0000 F   0  0  0  0  0  0  0  0  0  0  0  0
   11.6913   -2.2500    0.0000 C   0  0  0  0  0  0  0  0  0  0  0  0
   12.9904   -3.0000    0.0000 F   0  0  0  0  0  0  0  0  0  0  0  0
   10.9413   -3.5490    0.0000 F   0  0  0  0  0  0  0  0  0  0  0  0
   12.4413   -0.9510    0.0000 F   0  0  0  0  0  0  0  0  0  0  0  0
  1  2  1  0
  2  3  1  0
  3  4  1  0
  4  5  1  0
  5  6  1  0
  6  7  1  0
  7  8  1  0
  8  9  1  0
  8 10  1  0
  8 11  1  0
 11 12  1  0
 11 13  1  0
 11 14  1  0
 14 15  1  0
 14 16  1  0
 14 17  1  0
 17 18  1  0
 17 19  1  0
 17 20  1  0
M  END
$$$$

     RDKit          2D

 17 17  0  0  0  0  0  0  0  0999 V2000
    4.6160   -3.8971    0.0000 F   0  0  0  0  0  0  0  0  0  0  0  0
    3.8660   -2.5981    0.0000 C   0  0  0  0  0  0  0  0  0  0  0  0
    3.1587   -3.1311    0.0000 F   0  0  0  0  0  0  0  0  0  0  0  0
    4.6814   -2.2520    0.0000 F   0  0  0  0  0  0  0  0  0  0  0  0
    3.1160   -1.2990    0.0000 C   0  0  0  0  0  0  0  0  0  0  0  0
    2.3660    0.0000    0.0000 C   0  0  0  0  0  0  0  0  0  0  0  0
    0.8660    0.0000    0.0000 C   0  0  0  0  0  0  0  0  0  0  0  0
   -0.4330    0.7500    0.0000 C   0  0  0  0  0  0  0  0  0  0  0  0
   -0.4330   -0.7500    0.0000 O   0  0  0  0  0  0  0  0  0  0  0  0
    4.4151   -0.5490    0.0000 C   0  0  0  0  0  0  0  0  0  0  0  0
    5.7141    0.2010    0.0000 F   0  0  0  0  0  0  0  0  0  0  0  0
    4.9481   -1.2564    0.0000 F   0  0  0  0  0  0  0  0  0  0  0  0
    3.6651    0.7500    0.0000 F   0  0  0  0  0  0  0  0  0  0  0  0
    1.8170   -2.0490    0.0000 C   0  0  0  0  0  0  0  0  0  0  0  0
    0.5179   -2.7990    0.0000 F   0  0  0  0  0  0  0  0  0  0  0  0
    2.1630   -2.8644    0.0000 F   0  0  0  0  0  0  0  0  0  0  0  0
    0.7749   -0.9701    0.0000 F   0  0  0  0  0  0  0  0  0  0  0  0
  1  2  1  0
  2  3  1  0
  2  4  1  0
  2  5  1  0
  5  6  1  0
  6  7  1  0
  7  8  1  0
  8  9  1  0
  5 10  1  0
 10 11  1  0
 10 12  1  0
 10 13  1  0
  5 14  1  0
 14 15  1  0
 14 16  1  0
 14 17  1  0
  9  7  1  0
M  END
$$$$

     RDKit          2D

 15 14  0  0  0  0  0  0  0  0999 V2000
   -1.2990    0.7500    0.0000 O   0  0  0  0  0  0  0  0  0  0  0  0
    0.0000    0.0000    0.0000 C   0  0  0  0  0  0  0  0  0  0  0  0
   -0.0000   -1.5000    0.0000 Cl  0  0  0  0  0  0  0  0  0  0  0  0
    1.2990    0.7500    0.0000 C   0  0  0  0  0  0  0  0  0  0  0  0
    0.5490    2.0490    0.0000 F   0  0  0  0  0  0  0  0  0  0  0  0
    2.0490   -0.5490    0.0000 F   0  0  0  0  0  0  0  0  0  0  0  0
    2.5981    1.5000    0.0000 C   0  0  0  0  0  0  0  0  0  0  0  0
    3.3481    0.2010    0.0000 F   0  0  0  0  0  0  0  0  0  0  0  0
    1.8481    2.7990    0.0000 F   0  0  0  0  0  0  0  0  0  0  0  0
    3.8971    2.2500    0.0000 C   0  0  0  0  0  0  0  0  0  0  0  0
    3.1471    3.5490    0.0000 F   0  0  0  0  0  0  0  0  0  0  0  0
    4.6471    0.9510    0.0000 F   0  0  0  0  0  0  0  0  0  0  0  0
    5.1962    3.0000    0.0000 C   0  0  0  0  0  0  0  0  0  0  0  0
    5.1962    4.5000    0.0000 F   0  0  0  0  0  0  0  0  0  0  0  0
    6.4952    2.2500    0.0000 F   0  0  0  0  0  0  0  0  0  0  0  0
  1  2  2  0
  2  3  1  0
  2  4  1  0
  4  5  1  0
  4  6  1  0
  4  7  1  0
  7  8  1  0
  7  9  1  0
  7 10  1  0
 10 11  1  0
 10 12  1  0
 10 13  1  0
 13 14  1  0
 13 15  1  0
M  END
$$$$

     RDKit          2D

 15 15  0  0  0  0  0  0  0  0999 V2000
    3.0000    0.0000    0.0000 O   0  0  0  0  0  0  0  0  0  0  0  0
    1.5000    0.0000    0.0000 C   0  0  0  0  0  0  0  0  0  0  0  0
    0.7500   -1.2990    0.0000 C   0  0  0  0  0  0  0  0  0  0  0  0
   -0.7500   -1.2990    0.0000 C   0  0  0  0  0  0  0  0  0  0  0  0
   -1.5000    0.0000    0.0000 C   0  0  0  0  0  0  0  0  0  0  0  0
   -3.0000    0.0000    0.0000 O   0  0  0  0  0  0  0  0  0  0  0  0
   -3.7500    1.2990    0.0000 C   0  0  0  0  0  0  0  0  0  0  0  0
   -2.4510    2.0490    0.0000 F   0  0  0  0  0  0  0  0  0  0  0  0
   -5.0490    0.5490    0.0000 F   0  0  0  0  0  0  0  0  0  0  0  0
   -4.5000    2.5981    0.0000 C   0  0  0  0  0  0  0  0  0  0  0  0
   -5.2500    3.8971    0.0000 F   0  0  0  0  0  0  0  0  0  0  0  0
   -3.2010    3.3481    0.0000 F   0  0  0  0  0  0  0  0  0  0  0  0
   -5.7990    1.8481    0.0000 F   0  0  0  0  0  0  0  0  0  0  0  0
   -0.7500    1.2990    0.0000 C   0  0  0  0  0  0  0  0  0  0  0  0
    0.7500    1.2990    0.0000 C   0  0  0  0  0  0  0  0  0  0  0  0
  1  2  1  0
  2  3  2  0
  3  4  1  0
  4  5  2  0
  5  6  1  0
  6  7  1  0
  7  8  1  0
  7  9  1  0
  7 10  1  0
 10 11  1  0
 10 12  1  0
 10 13  1  0
  5 14  1  0
 14 15  2  0
 15  2  1  0
M  END
$$$$

     RDKit          2D

 24 24  0  0  0  0  0  0  0  0999 V2000
    6.8777   -0.5749    0.0000 C   0  0  0  0  0  0  0  0  0  0  0  0
    6.6172    0.9023    0.0000 C   0  0  0  0  0  0  0  0  0  0  0  0
    7.7663    1.8665    0.0000 C   0  0  0  0  0  0  0  0  0  0  0  0
    5.2077    1.4153    0.0000 C   0  0  0  0  0  0  0  0  0  0  0  0
    4.9472    2.8925    0.0000 O   0  0  0  0  0  0  0  0  0  0  0  0
    4.0586    0.4512    0.0000 O   0  0  0  0  0  0  0  0  0  0  0  0
    2.6491    0.9642    0.0000 C   0  0  0  0  0  0  0  0  0  0  0  0
    1.5000    0.0000    0.0000 C   0  0  0  0  0  0  0  0  0  0  0  0
    2.6491   -0.9642    0.0000 F   0  0  0  0  0  0  0  0  0  0  0  0
    0.7500   -1.2990    0.0000 C   0  0  0  0  0  0  0  0  0  0  0  0
    2.1595   -1.8121    0.0000 F   0  0  0  0  0  0  0  0  0  0  0  0
    0.4895   -2.7762    0.0000 F   0  0  0  0  0  0  0  0  0  0  0  0
   -0.7500   -1.2990    0.0000 C   0  0  0  0  0  0  0  0  0  0  0  0
   -0.4895   -2.7762    0.0000 F   0  0  0  0  0  0  0  0  0  0  0  0
   -2.1595   -1.8121    0.0000 F   0  0  0  0  0  0  0  0  0  0  0  0
   -1.5000    0.0000    0.0000 C   0  0  0  0  0  0  0  0  0  0  0  0
   -2.6491   -0.9642    0.0000 F   0  0  0  0  0  0  0  0  0  0  0  0
   -2.6491    0.9642    0.0000 F   0  0  0  0  0  0  0  0  0  0  0  0
   -0.7500    1.2990    0.0000 C   0  0  0  0  0  0  0  0  0  0  0  0
   -2.1595    1.8121    0.0000 F   0  0  0  0  0  0  0  0  0  0  0  0
   -0.4895    2.7762    0.0000 F   0  0  0  0  0  0  0  0  0  0  0  0
    0.7500    1.2990    0.0000 C   0  0  0  0  0  0  0  0  0  0  0  0
    0.4895    2.7762    0.0000 F   0  0  0  0  0  0  0  0  0  0  0  0
    2.1595    1.8121    0.0000 F   0  0  0  0  0  0  0  0  0  0  0  0
  1  2  2  0
  2  3  1  0
  2  4  1  0
  4  5  2  0
  4  6  1  0
  6  7  1  0
  7  8  1  0
  8  9  1  0
  8 10  1  0
 10 11  1  0
 10 12  1  0
 10 13  1  0
 13 14  1  0
 13 15  1  0
 13 16  1  0
 16 17  1  0
 16 18  1  0
 16 19  1  0
 19 20  1  0
 19 21  1  0
 19 22  1  0
 22 23  1  0
 22 24  1  0
 22  8  1  0
M  END
$$$$

     RDKit          2D

 21 20  0  0  0  0  0  0  0  0999 V2000
   -1.2990    0.7500    0.0000 O   0  0  0  0  0  0  0  0  0  0  0  0
    0.0000    0.0000    0.0000 C   0  0  0  0  0  0  0  0  0  0  0  0
   -0.0000   -1.5000    0.0000 Cl  0  0  0  0  0  0  0  0  0  0  0  0
    1.2990    0.7500    0.0000 C   0  0  0  0  0  0  0  0  0  0  0  0
    0.5490    2.0490    0.0000 F   0  0  0  0  0  0  0  0  0  0  0  0
    2.0490   -0.5490    0.0000 F   0  0  0  0  0  0  0  0  0  0  0  0
    2.5981    1.5000    0.0000 C   0  0  0  0  0  0  0  0  0  0  0  0
    3.3481    0.2010    0.0000 F   0  0  0  0  0  0  0  0  0  0  0  0
    1.8481    2.7990    0.0000 F   0  0  0  0  0  0  0  0  0  0  0  0
    3.8971    2.2500    0.0000 C   0  0  0  0  0  0  0  0  0  0  0  0
    3.1471    3.5490    0.0000 F   0  0  0  0  0  0  0  0  0  0  0  0
    4.6471    0.9510    0.0000 F   0  0  0  0  0  0  0  0  0  0  0  0
    5.1962    3.0000    0.0000 C   0  0  0  0  0  0  0  0  0  0  0  0
    5.9462    1.7010    0.0000 F   0  0  0  0  0  0  0  0  0  0  0  0
    4.4462    4.2990    0.0000 F   0  0  0  0  0  0  0  0  0  0  0  0
    6.4952    3.7500    0.0000 C   0  0  0  0  0  0  0  0  0  0  0  0
    5.7452    5.0490    0.0000 F   0  0  0  0  0  0  0  0  0  0  0  0
    7.2452    2.4510    0.0000 F   0  0  0  0  0  0  0  0  0  0  0  0
    7.7942    4.5000    0.0000 C   0  0  0  0  0  0  0  0  0  0  0  0
    7.7942    6.0000    0.0000 F   0  0  0  0  0  0  0  0  0  0  0  0
    9.0933    3.7500    0.0000 F   0  0  0  0  0  0  0  0  0  0  0  0
  1  2  2  0
  2  3  1  0
  2  4  1  0
  4  5  1  0
  4  6  1  0
  4  7  1  0
  7  8  1  0
  7  9  1  0
  7 10  1  0
 10 11  1  0
 10 12  1  0
 10 13  1  0
 13 14  1  0
 13 15  1  0
 13 16  1  0
 16 17  1  0
 16 18  1  0
 16 19  1  0
 19 20  1  0
 19 21  1  0
M  END
$$$$

     RDKit          2D

 19 18  0  0  0  0  0  0  0  0999 V2000
   -1.2990    0.7500    0.0000 F   0  0  0  0  0  0  0  0  0  0  0  0
    0.0000    0.0000    0.0000 C   0  0  0  0  0  0  0  0  0  0  0  0
   -0.0000   -1.5000    0.0000 F   0  0  0  0  0  0  0  0  0  0  0  0
    1.2990    0.7500    0.0000 C   0  0  0  0  0  0  0  0  0  0  0  0
    2.0490   -0.5490    0.0000 F   0  0  0  0  0  0  0  0  0  0  0  0
    0.5490    2.0490    0.0000 F   0  0  0  0  0  0  0  0  0  0  0  0
    2.5981    1.5000    0.0000 C   0  0  0  0  0  0  0  0  0  0  0  0
    1.8481    2.7990    0.0000 F   0  0  0  0  0  0  0  0  0  0  0  0
    3.3481    0.2010    0.0000 F   0  0  0  0  0  0  0  0  0  0  0  0
    3.8971    2.2500    0.0000 C   0  0  0  0  0  0  0  0  0  0  0  0
    4.6471    0.9510    0.0000 F   0  0  0  0  0  0  0  0  0  0  0  0
    3.1471    3.5490    0.0000 F   0  0  0  0  0  0  0  0  0  0  0  0
    5.1962    3.0000    0.0000 C   0  0  0  0  0  0  0  0  0  0  0  0
    4.4462    4.2990    0.0000 F   0  0  0  0  0  0  0  0  0  0  0  0
    5.9462    1.7010    0.0000 F   0  0  0  0  0  0  0  0  0  0  0  0
    6.4952    3.7500    0.0000 C   0  0  0  0  0  0  0  0  0  0  0  0
    7.7942    4.5000    0.0000 F   0  0  0  0  0  0  0  0  0  0  0  0
    7.2452    2.4510    0.0000 F   0  0  0  0  0  0  0  0  0  0  0  0
    5.7452    5.0490    0.0000 I   0  0  0  0  0  0  0  0  0  0  0  0
  1  2  1  0
  2  3  1  0
  2  4  1  0
  4  5  1  0
  4  6  1  0
  4  7  1  0
  7  8  1  0
  7  9  1  0
  7 10  1  0
 10 11  1  0
 10 12  1  0
 10 13  1  0
 13 14  1  0
 13 15  1  0
 13 16  1  0
 16 17  1  0
 16 18  1  0
 16 19  1  0
M  END
$$$$

     RDKit          2D

 20 20  0  0  0  0  0  0  0  0999 V2000
    6.1160   -6.4952    0.0000 F   0  0  0  0  0  0  0  0  0  0  0  0
    5.3660   -5.1962    0.0000 C   0  0  0  0  0  0  0  0  0  0  0  0
    4.0670   -5.9462    0.0000 F   0  0  0  0  0  0  0  0  0  0  0  0
    6.1814   -4.8501    0.0000 F   0  0  0  0  0  0  0  0  0  0  0  0
    4.6160   -3.8971    0.0000 C   0  0  0  0  0  0  0  0  0  0  0  0
    3.3170   -4.6471    0.0000 F   0  0  0  0  0  0  0  0  0  0  0  0
    5.9151   -3.1471    0.0000 C   0  0  0  0  0  0  0  0  0  0  0  0
    7.2141   -2.3971    0.0000 F   0  0  0  0  0  0  0  0  0  0  0  0
    6.4481   -3.8545    0.0000 F   0  0  0  0  0  0  0  0  0  0  0  0
    5.5690   -2.3318    0.0000 F   0  0  0  0  0  0  0  0  0  0  0  0
    3.8660   -2.5981    0.0000 C   0  0  0  0  0  0  0  0  0  0  0  0
    4.5734   -2.0650    0.0000 F   0  0  0  0  0  0  0  0  0  0  0  0
    2.5670   -3.3481    0.0000 F   0  0  0  0  0  0  0  0  0  0  0  0
    3.1160   -1.2990    0.0000 C   0  0  0  0  0  0  0  0  0  0  0  0
    4.4151   -0.5490    0.0000 F   0  0  0  0  0  0  0  0  0  0  0  0
    1.8170   -2.0490    0.0000 F   0  0  0  0  0  0  0  0  0  0  0  0
    2.3660    0.0000    0.0000 C   0  0  0  0  0  0  0  0  0  0  0  0
    0.8660    0.0000    0.0000 C   0  0  0  0  0  0  0  0  0  0  0  0
   -0.4330    0.7500    0.0000 C   0  0  0  0  0  0  0  0  0  0  0  0
   -0.4330   -0.7500    0.0000 O   0  0  0  0  0  0  0  0  0  0  0  0
  1  2  1  0
  2  3  1  0
  2  4  1  0
  2  5  1  0
  5  6  1  0
  5  7  1  0
  7  8  1  0
  7  9  1  0
  7 10  1  0
  5 11  1  0
 11 12  1  0
 11 13  1  0
 11 14  1  0
 14 15  1  0
 14 16  1  0
 14 17  1  0
 17 18  1  0
 18 19  1  0
 19 20  1  0
 20 18  1  0
M  END
$$$$

     RDKit          2D

 28 27  0  0  0  0  0  0  0  0999 V2000
   -1.2990    0.7500    0.0000 O   0  0  0  0  0  0  0  0  0  0  0  0
    0.0000    0.0000    0.0000 C   0  0  0  0  0  0  0  0  0  0  0  0
   -0.0000   -1.5000    0.0000 Cl  0  0  0  0  0  0  0  0  0  0  0  0
    1.2990    0.7500    0.0000 C   0  0  0  0  0  0  0  0  0  0  0  0
    0.5490    2.0490    0.0000 F   0  0  0  0  0  0  0  0  0  0  0  0
    2.0490   -0.5490    0.0000 F   0  0  0  0  0  0  0  0  0  0  0  0
    2.5981    1.5000    0.0000 C   0  0  0  0  0  0  0  0  0  0  0  0
    3.3481    0.2010    0.0000 F   0  0  0  0  0  0  0  0  0  0  0  0
    1.8481    2.7990    0.0000 F   0  0  0  0  0  0  0  0  0  0  0  0
    3.8971    2.2500    0.0000 C   0  0  0  0  0  0  0  0  0  0  0  0
    3.1471    3.5490    0.0000 F   0  0  0  0  0  0  0  0  0  0  0  0
    4.6471    0.9510    0.0000 F   0  0  0  0  0  0  0  0  0  0  0  0
    5.1962    3.0000    0.0000 C   0  0  0  0  0  0  0  0  0  0  0  0
    5.9462    1.7010    0.0000 F   0  0  0  0  0  0  0  0  0  0  0  0
    4.4462    4.2990    0.0000 F   0  0  0  0  0  0  0  0  0  0  0  0
    6.4952    3.7500    0.0000 C   0  0  0  0  0  0  0  0  0  0  0  0
    7.2452    2.4510    0.0000 F   0  0  0  0  0  0  0  0  0  0  0  0
    5.7452    5.0490    0.0000 F   0  0  0  0  0  0  0  0  0  0  0  0
    7.7942    4.5000    0.0000 C   0  0  0  0  0  0  0  0  0  0  0  0
    7.0442    5.7990    0.0000 F   0  0  0  0  0  0  0  0  0  0  0  0
    8.5442    3.2010    0.0000 F   0  0  0  0  0  0  0  0  0  0  0  0
    9.0933    5.2500    0.0000 C   0  0  0  0  0  0  0  0  0  0  0  0
    9.8433    3.9510    0.0000 F   0  0  0  0  0  0  0  0  0  0  0  0
    8.3433    6.5490    0.0000 F   0  0  0  0  0  0  0  0  0  0  0  0
   10.3923    6.0000    0.0000 C   0  0  0  0  0  0  0  0  0  0  0  0
   11.6913    6.7500    0.0000 F   0  0  0  0  0  0  0  0  0  0  0  0
    9.6423    7.2990    0.0000 F   0  0  0  0  0  0  0  0  0  0  0  0
   11.1423    4.7010    0.0000 F   0  0  0  0  0  0  0  0  0  0  0  0
  1  2  2  0
  2  3  1  0
  2  4  1  0
  4  5  1  0
  4  6  1  0
  4  7  1  0
  7  8  1  0
  7  9  1  0
  7 10  1  0
 10 11  1  0
 10 12  1  0
 10 13  1  0
 13 14  1  0
 13 15  1  0
 13 16  1  0
 16 17  1  0
 16 18  1  0
 16 19  1  0
 19 20  1  0
 19 21  1  0
 19 22  1  0
 22 23  1  0
 22 24  1  0
 22 25  1  0
 25 26  1  0
 25 27  1  0
 25 28  1  0
M  END
$$$$

     RDKit          2D

 23 22  0  0  0  0  0  0  0  0999 V2000
   -1.2990    0.7500    0.0000 O   0  0  0  0  0  0  0  0  0  0  0  0
    0.0000    0.0000    0.0000 C   0  0  0  0  0  0  0  0  0  0  0  0
    1.2990    0.7500    0.0000 C   0  0  0  0  0  0  0  0  0  0  0  0
    2.0490   -0.5490    0.0000 F   0  0  0  0  0  0  0  0  0  0  0  0
    0.5490    2.0490    0.0000 F   0  0  0  0  0  0  0  0  0  0  0  0
    2.5981    1.5000    0.0000 C   0  0  0  0  0  0  0  0  0  0  0  0
    1.8481    2.7990    0.0000 F   0  0  0  0  0  0  0  0  0  0  0  0
    3.3481    0.2010    0.0000 F   0  0  0  0  0  0  0  0  0  0  0  0
    3.8971    2.2500    0.0000 C   0  0  0  0  0  0  0  0  0  0  0  0
    4.6471    0.9510    0.0000 F   0  0  0  0  0  0  0  0  0  0  0  0
    3.1471    3.5490    0.0000 F   0  0  0  0  0  0  0  0  0  0  0  0
    5.1962    3.0000    0.0000 C   0  0  0  0  0  0  0  0  0  0  0  0
    5.9462    1.7010    0.0000 F   0  0  0  0  0  0  0  0  0  0  0  0
    4.4462    4.2990    0.0000 F   0  0  0  0  0  0  0  0  0  0  0  0
    6.4952    3.7500    0.0000 C   0  0  0  0  0  0  0  0  0  0  0  0
    5.7452    5.0490    0.0000 F   0  0  0  0  0  0  0  0  0  0  0  0
    7.2452    2.4510    0.0000 F   0  0  0  0  0  0  0  0  0  0  0  0
    7.7942    4.5000    0.0000 C   0  0  0  0  0  0  0  0  0  0  0  0
    8.5442    3.2010    0.0000 F   0  0  0  0  0  0  0  0  0  0  0  0
    7.0442    5.7990    0.0000 F   0  0  0  0  0  0  0  0  0  0  0  0
    9.0933    5.2500    0.0000 C   0  0  0  0  0  0  0  0  0  0  0  0
   10.3923    4.5000    0.0000 F   0  0  0  0  0  0  0  0  0  0  0  0
    9.0933    6.7500    0.0000 F   0  0  0  0  0  0  0  0  0  0  0  0
  1  2  1  0
  2  3  1  0
  3  4  1  0
  3  5  1  0
  3  6  1  0
  6  7  1  0
  6  8  1  0
  6  9  1  0
  9 10  1  0
  9 11  1  0
  9 12  1  0
 12 13  1  0
 12 14  1  0
 12 15  1  0
 15 16  1  0
 15 17  1  0
 15 18  1  0
 18 19  1  0
 18 20  1  0
 18 21  1  0
 21 22  1  0
 21 23  1  0
M  END
$$$$

     RDKit          2D

 27 26  0  0  0  0  0  0  0  0999 V2000
    0.0000    0.0000    0.0000 C   0  0  0  0  0  0  0  0  0  0  0  0
    1.2990    0.7500    0.0000 C   0  0  0  0  0  0  0  0  0  0  0  0
    2.5981   -0.0000    0.0000 C   0  0  0  0  0  0  0  0  0  0  0  0
    1.2990    2.2500    0.0000 C   0  0  0  0  0  0  0  0  0  0  0  0
    0.0000    3.0000    0.0000 O   0  0  0  0  0  0  0  0  0  0  0  0
    2.5981    3.0000    0.0000 O   0  0  0  0  0  0  0  0  0  0  0  0
    2.5981    4.5000    0.0000 C   0  0  0  0  0  0  0  0  0  0  0  0
    3.8971    5.2500    0.0000 C   0  0  0  0  0  0  0  0  0  0  0  0
    3.8971    6.7500    0.0000 C   0  0  0  0  0  0  0  0  0  0  0  0
    5.3971    6.7500    0.0000 F   0  0  0  0  0  0  0  0  0  0  0  0
    2.3971    6.7500    0.0000 F   0  0  0  0  0  0  0  0  0  0  0  0
    3.8971    8.2500    0.0000 C   0  0  0  0  0  0  0  0  0  0  0  0
    2.3971    8.2500    0.0000 F   0  0  0  0  0  0  0  0  0  0  0  0
    5.3971    8.2500    0.0000 F   0  0  0  0  0  0  0  0  0  0  0  0
    3.8971    9.7500    0.0000 C   0  0  0  0  0  0  0  0  0  0  0  0
    5.3971    9.7500    0.0000 F   0  0  0  0  0  0  0  0  0  0  0  0
    2.3971    9.7500    0.0000 F   0  0  0  0  0  0  0  0  0  0  0  0
    3.8971   11.2500    0.0000 C   0  0  0  0  0  0  0  0  0  0  0  0
    2.3971   11.2500    0.0000 F   0  0  0  0  0  0  0  0  0  0  0  0
    5.3971   11.2500    0.0000 F   0  0  0  0  0  0  0  0  0  0  0  0
    3.8971   12.7500    0.0000 C   0  0  0  0  0  0  0  0  0  0  0  0
    5.3971   12.7500    0.0000 F   0  0  0  0  0  0  0  0  0  0  0  0
    2.3971   12.7500    0.0000 F   0  0  0  0  0  0  0  0  0  0  0  0
    3.8971   14.2500    0.0000 C   0  0  0  0  0  0  0  0  0  0  0  0
    3.8971   15.7500    0.0000 F   0  0  0  0  0  0  0  0  0  0  0  0
    2.3971   14.2500    0.0000 F   0  0  0  0  0  0  0  0  0  0  0  0
    5.3971   14.2500    0.0000 F   0  0  0  0  0  0  0  0  0  0  0  0
  1  2  1  0
  2  3  1  0
  2  4  1  0
  4  5  2  0
  4  6  1  0
  6  7  1  0
  7  8  1  0
  8  9  1  0
  9 10  1  0
  9 11  1  0
  9 12  1  0
 12 13  1  0
 12 14  1  0
 12 15  1  0
 15 16  1  0
 15 17  1  0
 15 18  1  0
 18 19  1  0
 18 20  1  0
 18 21  1  0
 21 22  1  0
 21 23  1  0
 21 24  1  0
 24 25  1  0
 24 26  1  0
 24 27  1  0
M  END
$$$$

     RDKit          2D

 41 40  0  0  0  0  0  0  0  0999 V2000
   -1.5000    0.0000    0.0000 F   0  0  0  0  0  0  0  0  0  0  0  0
    0.0000    0.0000    0.0000 C   0  0  0  0  0  0  0  0  0  0  0  0
    0.0000    1.5000    0.0000 F   0  0  0  0  0  0  0  0  0  0  0  0
   -0.0000   -1.5000    0.0000 F   0  0  0  0  0  0  0  0  0  0  0  0
    1.5000    0.0000    0.0000 C   0  0  0  0  0  0  0  0  0  0  0  0
    1.5000    1.5000    0.0000 F   0  0  0  0  0  0  0  0  0  0  0  0
    1.5000   -1.5000    0.0000 F   0  0  0  0  0  0  0  0  0  0  0  0
    3.0000    0.0000    0.0000 C   0  0  0  0  0  0  0  0  0  0  0  0
    3.0000   -1.5000    0.0000 F   0  0  0  0  0  0  0  0  0  0  0  0
    3.0000    1.5000    0.0000 F   0  0  0  0  0  0  0  0  0  0  0  0
    4.5000    0.0000    0.0000 C   0  0  0  0  0  0  0  0  0  0  0  0
    4.5000    1.5000    0.0000 F   0  0  0  0  0  0  0  0  0  0  0  0
    4.5000   -1.5000    0.0000 F   0  0  0  0  0  0  0  0  0  0  0  0
    6.0000    0.0000    0.0000 C   0  0  0  0  0  0  0  0  0  0  0  0
    6.0000   -1.5000    0.0000 F   0  0  0  0  0  0  0  0  0  0  0  0
    6.0000    1.5000    0.0000 F   0  0  0  0  0  0  0  0  0  0  0  0
    7.5000    0.0000    0.0000 C   0  0  0  0  0  0  0  0  0  0  0  0
    7.5000    1.5000    0.0000 F   0  0  0  0  0  0  0  0  0  0  0  0
    7.5000   -1.5000    0.0000 F   0  0  0  0  0  0  0  0  0  0  0  0
    9.0000    0.0000    0.0000 C   0  0  0  0  0  0  0  0  0  0  0  0
    9.0000    1.5000    0.0000 F   0  0  0  0  0  0  0  0  0  0  0  0
    9.0000   -1.5000    0.0000 F   0  0  0  0  0  0  0  0  0  0  0  0
   10.5000    0.0000    0.0000 C   0  0  0  0  0  0  0  0  0  0  0  0
   10.5000   -1.5000    0.0000 F   0  0  0  0  0  0  0  0  0  0  0  0
   10.5000    1.5000    0.0000 F   0  0  0  0  0  0  0  0  0  0  0  0
   12.0000    0.0000    0.0000 C   0  0  0  0  0  0  0  0  0  0  0  0
   12.0000    1.5000    0.0000 F   0  0  0  0  0  0  0  0  0  0  0  0
   12.0000   -1.5000    0.0000 F   0  0  0  0  0  0  0  0  0  0  0  0
   13.5000    0.0000    0.0000 C   0  0  0  0  0  0  0  0  0  0  0  0
   13.5000   -1.5000    0.0000 F   0  0  0  0  0  0  0  0  0  0  0  0
   13.5000    1.5000    0.0000 F   0  0  0  0  0  0  0  0  0  0  0  0
   15.0000    0.0000    0.0000 C   0  0  0  0  0  0  0  0  0  0  0  0
   15.0000    1.5000    0.0000 F   0  0  0  0  0  0  0  0  0  0  0  0
   15.0000   -1.5000    0.0000 F   0  0  0  0  0  0  0  0  0  0  0  0
   16.5000    0.0000    0.0000 C   0  0  0  0  0  0  0  0  0  0  0  0
   16.5000   -1.5000    0.0000 F   0  0  0  0  0  0  0  0  0  0  0  0
   16.5000    1.5000    0.0000 F   0  0  0  0  0  0  0  0  0  0  0  0
   18.0000    0.0000    0.0000 C   0  0  0  0  0  0  0  0  0  0  0  0
   19.5000    0.0000    0.0000 F   0  0  0  0  0  0  0  0  0  0  0  0
   18.0000    1.5000    0.0000 F   0  0  0  0  0  0  0  0  0  0  0  0
   18.0000   -1.5000    0.0000 F   0  0  0  0  0  0  0  0  0  0  0  0
  1  2  1  0
  2  3  1  0
  2  4  1  0
  2  5  1  0
  5  6  1  0
  5  7  1  0
  5  8  1  0
  8  9  1  0
  8 10  1  0
  8 11  1  0
 11 12  1  0
 11 13  1  0
 11 14  1  0
 14 15  1  0
 14 16  1  0
 14 17  1  0
 17 18  1  0
 17 19  1  0
 17 20  1  0
 20 21  1  0
 20 22  1  0
 20 23  1  0
 23 24  1  0
 23 25  1  0
 23 26  1  0
 26 27  1  0
 26 28  1  0
 26 29  1  0
 29 30  1  0
 29 31  1  0
 29 32  1  0
 32 33  1  0
 32 34  1  0
 32 35  1  0
 35 36  1  0
 35 37  1  0
 35 38  1  0
 38 39  1  0
 38 40  1  0
 38 41  1  0
M  END
$$$$

     RDKit          2D

 33 32  0  0  0  0  0  0  0  0999 V2000
   -1.2990    0.7500    0.0000 O   0  0  0  0  0  0  0  0  0  0  0  0
    0.0000    0.0000    0.0000 C   0  0  0  0  0  0  0  0  0  0  0  0
    1.2990    0.7500    0.0000 C   0  0  0  0  0  0  0  0  0  0  0  0
    2.0490   -0.5490    0.0000 F   0  0  0  0  0  0  0  0  0  0  0  0
    0.5490    2.0490    0.0000 F   0  0  0  0  0  0  0  0  0  0  0  0
    2.5981    1.5000    0.0000 C   0  0  0  0  0  0  0  0  0  0  0  0
    1.8481    2.7990    0.0000 F   0  0  0  0  0  0  0  0  0  0  0  0
    3.3481    0.2010    0.0000 F   0  0  0  0  0  0  0  0  0  0  0  0
    3.8971    2.2500    0.0000 C   0  0  0  0  0  0  0  0  0  0  0  0
    4.6471    0.9510    0.0000 F   0  0  0  0  0  0  0  0  0  0  0  0
    3.1471    3.5490    0.0000 F   0  0  0  0  0  0  0  0  0  0  0  0
    5.1962    3.0000    0.0000 C   0  0  0  0  0  0  0  0  0  0  0  0
    4.4462    4.2990    0.0000 F   0  0  0  0  0  0  0  0  0  0  0  0
    5.9462    1.7010    0.0000 F   0  0  0  0  0  0  0  0  0  0  0  0
    6.4952    3.7500    0.0000 C   0  0  0  0  0  0  0  0  0  0  0  0
    7.2452    2.4510    0.0000 F   0  0  0  0  0  0  0  0  0  0  0  0
    5.7452    5.0490    0.0000 F   0  0  0  0  0  0  0  0  0  0  0  0
    7.7942    4.5000    0.0000 C   0  0  0  0  0  0  0  0  0  0  0  0
    7.0442    5.7990    0.0000 F   0  0  0  0  0  0  0  0  0  0  0  0
    8.5442    3.2010    0.0000 F   0  0  0  0  0  0  0  0  0  0  0  0
    9.0933    5.2500    0.0000 C   0  0  0  0  0  0  0  0  0  0  0  0
    9.8433    3.9510    0.0000 F   0  0  0  0  0  0  0  0  0  0  0  0
    8.3433    6.5490    0.0000 F   0  0  0  0  0  0  0  0  0  0  0  0
   10.3923    6.0000    0.0000 C   0  0  0  0  0  0  0  0  0  0  0  0
    9.6423    7.2990    0.0000 F   0  0  0  0  0  0  0  0  0  0  0  0
   11.1423    4.7010    0.0000 F   0  0  0  0  0  0  0  0  0  0  0  0
   11.6913    6.7500    0.0000 C   0  0  0  0  0  0  0  0  0  0  0  0
   12.4413    5.4510    0.0000 F   0  0  0  0  0  0  0  0  0  0  0  0
   10.9413    8.0490    0.0000 F   0  0  0  0  0  0  0  0  0  0  0  0
   12.9904    7.5000    0.0000 C   0  0  0  0  0  0  0  0  0  0  0  0
   14.2894    8.2500    0.0000 F   0  0  0  0  0  0  0  0  0  0  0  0
   12.2404    8.7990    0.0000 F   0  0  0  0  0  0  0  0  0  0  0  0
   13.7404    6.2010    0.0000 F   0  0  0  0  0  0  0  0  0  0  0  0
  1  2  1  0
  2  3  1  0
  3  4  1  0
  3  5  1  0
  3  6  1  0
  6  7  1  0
  6  8  1  0
  6  9  1  0
  9 10  1  0
  9 11  1  0
  9 12  1  0
 12 13  1  0
 12 14  1  0
 12 15  1  0
 15 16  1  0
 15 17  1  0
 15 18  1  0
 18 19  1  0
 18 20  1  0
 18 21  1  0
 21 22  1  0
 21 23  1  0
 21 24  1  0
 24 25  1  0
 24 26  1  0
 24 27  1  0
 27 28  1  0
 27 29  1  0
 27 30  1  0
 30 31  1  0
 30 32  1  0
 30 33  1  0
M  END
$$$$

     RDKit          2D

 15 16  0  0  0  0  0  0  0  0999 V2000
    3.0000    0.0000    0.0000 N   0  0  0  0  0  0  0  0  0  0  0  0
    1.5000    0.0000    0.0000 C   0  0  0  0  0  0  0  0  0  0  0  0
    0.7500   -1.2990    0.0000 C   0  0  0  0  0  0  0  0  0  0  0  0
   -0.7500   -1.2990    0.0000 C   0  0  0  0  0  0  0  0  0  0  0  0
   -1.5000    0.0000    0.0000 C   0  0  0  0  0  0  0  0  0  0  0  0
   -0.7500    1.2990    0.0000 C   0  0  0  0  0  0  0  0  0  0  0  0
    0.7500    1.2990    0.0000 C   0  0  0  0  0  0  0  0  0  0  0  0
   -1.5000    2.5981    0.0000 O   0  0  0  0  0  0  0  0  0  0  0  0
   -3.0000    2.5981    0.0000 C   0  0  0  0  0  0  0  0  0  0  0  0
   -4.4095    3.1111    0.0000 F   0  0  0  0  0  0  0  0  0  0  0  0
   -2.7395    4.0753    0.0000 F   0  0  0  0  0  0  0  0  0  0  0  0
   -3.7500    1.2990    0.0000 C   0  0  0  0  0  0  0  0  0  0  0  0
   -4.8991    0.3349    0.0000 F   0  0  0  0  0  0  0  0  0  0  0  0
   -4.8991    2.2632    0.0000 F   0  0  0  0  0  0  0  0  0  0  0  0
   -3.0000    0.0000    0.0000 O   0  0  0  0  0  0  0  0  0  0  0  0
  1  2  1  0
  2  3  2  0
  3  4  1  0
  4  5  2  0
  5  6  1  0
  6  7  2  0
  6  8  1  0
  8  9  1  0
  9 10  1  0
  9 11  1  0
  9 12  1  0
 12 13  1  0
 12 14  1  0
 12 15  1  0
  7  2  1  0
 15  5  1  0
M  END
$$$$

     RDKit          2D

 12 11  0  0  0  0  0  0  0  0999 V2000
   -1.2990    0.7500    0.0000 O   0  0  0  0  0  0  0  0  0  0  0  0
    0.0000    0.0000    0.0000 C   0  0  0  0  0  0  0  0  0  0  0  0
   -0.0000   -1.5000    0.0000 F   0  0  0  0  0  0  0  0  0  0  0  0
    1.2990    0.7500    0.0000 C   0  0  0  0  0  0  0  0  0  0  0  0
    2.0490   -0.5490    0.0000 F   0  0  0  0  0  0  0  0  0  0  0  0
    0.5490    2.0490    0.0000 F   0  0  0  0  0  0  0  0  0  0  0  0
    2.5981    1.5000    0.0000 C   0  0  0  0  0  0  0  0  0  0  0  0
    3.3481    0.2010    0.0000 F   0  0  0  0  0  0  0  0  0  0  0  0
    1.8481    2.7990    0.0000 F   0  0  0  0  0  0  0  0  0  0  0  0
    3.8971    2.2500    0.0000 C   0  0  0  0  0  0  0  0  0  0  0  0
    5.1962    1.5000    0.0000 O   0  0  0  0  0  0  0  0  0  0  0  0
    3.8971    3.7500    0.0000 F   0  0  0  0  0  0  0  0  0  0  0  0
  1  2  2  0
  2  3  1  0
  2  4  1  0
  4  5  1  0
  4  6  1  0
  4  7  1  0
  7  8  1  0
  7  9  1  0
  7 10  1  0
 10 11  2  0
 10 12  1  0
M  END
$$$$

     RDKit          2D

  7  6  0  0  0  0  0  0  0  0999 V2000
   -1.2990    0.7500    0.0000 F   0  0  0  0  0  0  0  0  0  0  0  0
    0.0000    0.0000    0.0000 C   0  0  0  0  0  0  0  0  0  0  0  0
   -0.0000   -1.5000    0.0000 I   0  0  0  0  0  0  0  0  0  0  0  0
    1.2990    0.7500    0.0000 C   0  0  0  0  0  0  0  0  0  0  0  0
    2.5981    1.5000    0.0000 F   0  0  0  0  0  0  0  0  0  0  0  0
    2.0490   -0.5490    0.0000 F   0  0  0  0  0  0  0  0  0  0  0  0
    0.5490    2.0490    0.0000 F   0  0  0  0  0  0  0  0  0  0  0  0
  1  2  1  0
  2  3  1  0
  2  4  1  0
  4  5  1  0
  4  6  1  0
  4  7  1  0
M  END
$$$$

     RDKit          2D

 12 12  0  0  0  0  0  0  0  0999 V2000
    2.1213    1.0607    0.0000 F   0  0  0  0  0  0  0  0  0  0  0  0
    1.0607    0.0000    0.0000 C   0  0  0  0  0  0  0  0  0  0  0  0
    2.1213   -1.0607    0.0000 F   0  0  0  0  0  0  0  0  0  0  0  0
   -0.0000   -1.0607    0.0000 C   0  0  0  0  0  0  0  0  0  0  0  0
    1.0607   -2.1213    0.0000 F   0  0  0  0  0  0  0  0  0  0  0  0
   -1.0607   -2.1213    0.0000 F   0  0  0  0  0  0  0  0  0  0  0  0
   -1.0607    0.0000    0.0000 C   0  0  0  0  0  0  0  0  0  0  0  0
   -2.1213   -1.0607    0.0000 Br  0  0  0  0  0  0  0  0  0  0  0  0
   -2.1213    1.0607    0.0000 Br  0  0  0  0  0  0  0  0  0  0  0  0
    0.0000    1.0607    0.0000 C   0  0  0  0  0  0  0  0  0  0  0  0
   -1.0607    2.1213    0.0000 F   0  0  0  0  0  0  0  0  0  0  0  0
    1.0607    2.1213    0.0000 Br  0  0  0  0  0  0  0  0  0  0  0  0
  1  2  1  0
  2  3  1  0
  2  4  1  0
  4  5  1  0
  4  6  1  0
  4  7  1  0
  7  8  1  0
  7  9  1  0
  7 10  1  0
 10 11  1  0
 10 12  1  0
 10  2  1  0
M  END
$$$$

     RDKit          2D

 21 20  0  0  0  0  0  0  0  0999 V2000
   -0.9510    0.5490    0.0000 C   0  0  0  0  0  0  0  0  0  0  0  0
   -0.9510    2.0490    0.0000 Si  0  0  0  0  0  4  0  0  0  0  0  0
   -0.9510    3.5490    0.0000 C   0  0  0  0  0  0  0  0  0  0  0  0
   -2.4510    2.0490    0.0000 C   0  0  0  0  0  0  0  0  0  0  0  0
    0.5490    2.0490    0.0000 O   0  0  0  0  0  0  0  0  0  0  0  0
    1.2990    3.3481    0.0000 S   0  0  0  0  0  0  0  0  0  0  0  0
    0.0000    4.0981    0.0000 O   0  0  0  0  0  0  0  0  0  0  0  0
    1.9357    2.8683    0.0000 O   0  0  0  0  0  0  0  0  0  0  0  0
    2.0490    4.6471    0.0000 C   0  0  0  0  0  0  0  0  0  0  0  0
    0.7500    5.3971    0.0000 F   0  0  0  0  0  0  0  0  0  0  0  0
    2.7990    5.9462    0.0000 F   0  0  0  0  0  0  0  0  0  0  0  0
    3.3481    3.8971    0.0000 C   0  0  0  0  0  0  0  0  0  0  0  0
    3.0020    3.0818    0.0000 F   0  0  0  0  0  0  0  0  0  0  0  0
    4.0981    5.1962    0.0000 F   0  0  0  0  0  0  0  0  0  0  0  0
    4.6471    3.1471    0.0000 C   0  0  0  0  0  0  0  0  0  0  0  0
    5.3971    4.4462    0.0000 F   0  0  0  0  0  0  0  0  0  0  0  0
    3.8971    1.8481    0.0000 F   0  0  0  0  0  0  0  0  0  0  0  0
    5.9462    2.3971    0.0000 C   0  0  0  0  0  0  0  0  0  0  0  0
    7.2452    1.6471    0.0000 F   0  0  0  0  0  0  0  0  0  0  0  0
    5.1962    1.0981    0.0000 F   0  0  0  0  0  0  0  0  0  0  0  0
    6.6962    3.6962    0.0000 F   0  0  0  0  0  0  0  0  0  0  0  0
  1  2  1  0
  2  3  1  0
  2  4  1  0
  2  5  1  0
  5  6  1  0
  6  7  2  0
  6  8  2  0
  6  9  1  0
  9 10  1  0
  9 11  1  0
  9 12  1  0
 12 13  1  0
 12 14  1  0
 12 15  1  0
 15 16  1  0
 15 17  1  0
 15 18  1  0
 18 19  1  0
 18 20  1  0
 18 21  1  0
M  END
$$$$

     RDKit          2D

 25 24  0  0  0  0  0  0  0  0999 V2000
   -1.2990    0.7500    0.0000 O   0  0  0  0  0  0  0  0  0  0  0  0
    0.0000    0.0000    0.0000 C   0  0  0  0  0  0  0  0  0  0  0  0
    1.2990    0.7500    0.0000 C   0  0  0  0  0  0  0  0  0  0  0  0
    2.0490   -0.5490    0.0000 F   0  0  0  0  0  0  0  0  0  0  0  0
    0.5490    2.0490    0.0000 F   0  0  0  0  0  0  0  0  0  0  0  0
    2.5981    1.5000    0.0000 O   0  0  0  0  0  0  0  0  0  0  0  0
    2.5981    3.0000    0.0000 C   0  0  0  0  0  0  0  0  0  0  0  0
    1.0981    3.0000    0.0000 F   0  0  0  0  0  0  0  0  0  0  0  0
    4.0981    3.0000    0.0000 F   0  0  0  0  0  0  0  0  0  0  0  0
    2.5981    4.5000    0.0000 C   0  0  0  0  0  0  0  0  0  0  0  0
    1.0981    4.5000    0.0000 F   0  0  0  0  0  0  0  0  0  0  0  0
    4.0981    4.5000    0.0000 F   0  0  0  0  0  0  0  0  0  0  0  0
    2.5981    6.0000    0.0000 O   0  0  0  0  0  0  0  0  0  0  0  0
    3.8971    6.7500    0.0000 C   0  0  0  0  0  0  0  0  0  0  0  0
    4.6471    5.4510    0.0000 F   0  0  0  0  0  0  0  0  0  0  0  0
    3.1471    8.0490    0.0000 F   0  0  0  0  0  0  0  0  0  0  0  0
    5.1962    7.5000    0.0000 C   0  0  0  0  0  0  0  0  0  0  0  0
    5.9462    6.2010    0.0000 F   0  0  0  0  0  0  0  0  0  0  0  0
    4.4462    8.7990    0.0000 F   0  0  0  0  0  0  0  0  0  0  0  0
    6.4952    8.2500    0.0000 O   0  0  0  0  0  0  0  0  0  0  0  0
    6.4952    9.7500    0.0000 C   0  0  0  0  0  0  0  0  0  0  0  0
    4.9952    9.7500    0.0000 F   0  0  0  0  0  0  0  0  0  0  0  0
    7.9952    9.7500    0.0000 F   0  0  0  0  0  0  0  0  0  0  0  0
    6.4952   11.2500    0.0000 C   0  0  0  0  0  0  0  0  0  0  0  0
    5.1962   12.0000    0.0000 O   0  0  0  0  0  0  0  0  0  0  0  0
  1  2  1  0
  2  3  1  0
  3  4  1  0
  3  5  1  0
  3  6  1  0
  6  7  1  0
  7  8  1  0
  7  9  1  0
  7 10  1  0
 10 11  1  0
 10 12  1  0
 10 13  1  0
 13 14  1  0
 14 15  1  0
 14 16  1  0
 14 17  1  0
 17 18  1  0
 17 19  1  0
 17 20  1  0
 20 21  1  0
 21 22  1  0
 21 23  1  0
 21 24  1  0
 24 25  1  0
M  END
$$$$

     RDKit          2D

 18 17  0  0  0  0  0  0  0  0999 V2000
    0.0000    0.0000    0.0000 C   0  0  0  0  0  0  0  0  0  0  0  0
    1.2990    0.7500    0.0000 C   0  0  0  0  0  0  0  0  0  0  0  0
    2.5981   -0.0000    0.0000 C   0  0  0  0  0  0  0  0  0  0  0  0
    3.8971    0.7500    0.0000 C   0  0  0  0  0  0  0  0  0  0  0  0
    4.6471   -0.5490    0.0000 F   0  0  0  0  0  0  0  0  0  0  0  0
    3.1471    2.0490    0.0000 F   0  0  0  0  0  0  0  0  0  0  0  0
    5.1962    1.5000    0.0000 C   0  0  0  0  0  0  0  0  0  0  0  0
    4.4462    2.7990    0.0000 F   0  0  0  0  0  0  0  0  0  0  0  0
    5.9462    0.2010    0.0000 F   0  0  0  0  0  0  0  0  0  0  0  0
    6.4952    2.2500    0.0000 C   0  0  0  0  0  0  0  0  0  0  0  0
    5.7452    3.5490    0.0000 F   0  0  0  0  0  0  0  0  0  0  0  0
    7.2452    0.9510    0.0000 F   0  0  0  0  0  0  0  0  0  0  0  0
    7.7942    3.0000    0.0000 C   0  0  0  0  0  0  0  0  0  0  0  0
    8.5442    1.7010    0.0000 F   0  0  0  0  0  0  0  0  0  0  0  0
    7.0442    4.2990    0.0000 F   0  0  0  0  0  0  0  0  0  0  0  0
    9.0933    3.7500    0.0000 C   0  0  0  0  0  0  0  0  0  0  0  0
   10.3923    3.0000    0.0000 C   0  0  0  0  0  0  0  0  0  0  0  0
   11.6913    3.7500    0.0000 C   0  0  0  0  0  0  0  0  0  0  0  0
  1  2  2  0
  2  3  1  0
  3  4  1  0
  4  5  1  0
  4  6  1  0
  4  7  1  0
  7  8  1  0
  7  9  1  0
  7 10  1  0
 10 11  1  0
 10 12  1  0
 10 13  1  0
 13 14  1  0
 13 15  1  0
 13 16  1  0
 16 17  1  0
 17 18  2  0
M  END
$$$$

     RDKit          2D

 18 17  0  0  0  0  0  0  0  0999 V2000
    2.5981    3.0000    0.0000 F   0  0  0  0  0  0  0  0  0  0  0  0
    2.5981    1.5000    0.0000 C   0  0  0  0  0  0  0  0  0  0  0  0
    3.8971    0.7500    0.0000 F   0  0  0  0  0  0  0  0  0  0  0  0
    1.2990    0.7500    0.0000 C   0  0  0  0  0  0  0  0  0  0  0  0
    2.0490   -0.5490    0.0000 F   0  0  0  0  0  0  0  0  0  0  0  0
    0.5490    2.0490    0.0000 F   0  0  0  0  0  0  0  0  0  0  0  0
    0.0000    0.0000    0.0000 C   0  0  0  0  0  0  0  0  0  0  0  0
   -1.2990    0.7500    0.0000 O   0  0  0  0  0  0  0  0  0  0  0  0
   -2.5981    0.0000    0.0000 C   0  0  0  0  0  0  0  0  0  0  0  0
   -1.8481   -1.2990    0.0000 F   0  0  0  0  0  0  0  0  0  0  0  0
   -3.3481    1.2990    0.0000 Br  0  0  0  0  0  0  0  0  0  0  0  0
   -3.8971   -0.7500    0.0000 C   0  0  0  0  0  0  0  0  0  0  0  0
   -4.6471    0.5490    0.0000 F   0  0  0  0  0  0  0  0  0  0  0  0
   -3.1471   -2.0490    0.0000 Br  0  0  0  0  0  0  0  0  0  0  0  0
   -5.1962   -1.5000    0.0000 C   0  0  0  0  0  0  0  0  0  0  0  0
   -6.4952   -2.2500    0.0000 F   0  0  0  0  0  0  0  0  0  0  0  0
   -5.9462   -0.2010    0.0000 F   0  0  0  0  0  0  0  0  0  0  0  0
   -4.4462   -2.7990    0.0000 F   0  0  0  0  0  0  0  0  0  0  0  0
  1  2  1  0
  2  3  1  0
  2  4  1  0
  4  5  1  0
  4  6  1  0
  4  7  1  0
  7  8  1  0
  8  9  1  0
  9 10  1  0
  9 11  1  0
  9 12  1  0
 12 13  1  0
 12 14  1  0
 12 15  1  0
 15 16  1  0
 15 17  1  0
 15 18  1  0
M  END
$$$$

     RDKit          2D

 12 11  0  0  0  0  0  0  0  0999 V2000
   -0.0000   -1.5000    0.0000 F   0  0  0  0  0  0  0  0  0  0  0  0
    0.0000    0.0000    0.0000 C   0  0  0  0  0  0  0  0  0  0  0  0
   -1.2990    0.7500    0.0000 C   0  0  0  0  0  0  0  0  0  0  0  0
   -1.2990    2.2500    0.0000 Cl  0  0  0  0  0  0  0  0  0  0  0  0
   -2.5981    0.0000    0.0000 C   0  0  0  0  0  0  0  0  0  0  0  0
   -3.8971   -0.7500    0.0000 F   0  0  0  0  0  0  0  0  0  0  0  0
   -3.3481    1.2990    0.0000 F   0  0  0  0  0  0  0  0  0  0  0  0
   -1.8481   -1.2990    0.0000 F   0  0  0  0  0  0  0  0  0  0  0  0
    1.2990    0.7500    0.0000 C   0  0  0  0  0  0  0  0  0  0  0  0
    2.5981    1.5000    0.0000 F   0  0  0  0  0  0  0  0  0  0  0  0
    2.0490   -0.5490    0.0000 F   0  0  0  0  0  0  0  0  0  0  0  0
    0.5490    2.0490    0.0000 F   0  0  0  0  0  0  0  0  0  0  0  0
  1  2  1  0
  2  3  1  0
  3  4  1  0
  3  5  1  0
  5  6  1  0
  5  7  1  0
  5  8  1  0
  2  9  1  0
  9 10  1  0
  9 11  1  0
  9 12  1  0
M  END
$$$$

     RDKit          2D

 16 15  0  0  0  0  0  0  0  0999 V2000
   -1.2990    0.7500    0.0000 N   0  0  0  0  0  0  0  0  0  0  0  0
    0.0000    0.0000    0.0000 C   0  0  0  0  0  0  0  0  0  0  0  0
    1.2990    0.7500    0.0000 C   0  0  0  0  0  0  0  0  0  0  0  0
    2.0490   -0.5490    0.0000 F   0  0  0  0  0  0  0  0  0  0  0  0
    0.5490    2.0490    0.0000 F   0  0  0  0  0  0  0  0  0  0  0  0
    2.5981    1.5000    0.0000 C   0  0  0  0  0  0  0  0  0  0  0  0
    1.8481    2.7990    0.0000 F   0  0  0  0  0  0  0  0  0  0  0  0
    3.3481    0.2010    0.0000 F   0  0  0  0  0  0  0  0  0  0  0  0
    3.8971    2.2500    0.0000 C   0  0  0  0  0  0  0  0  0  0  0  0
    3.1471    3.5490    0.0000 F   0  0  0  0  0  0  0  0  0  0  0  0
    4.6471    0.9510    0.0000 F   0  0  0  0  0  0  0  0  0  0  0  0
    5.1962    3.0000    0.0000 C   0  0  0  0  0  0  0  0  0  0  0  0
    5.9462    1.7010    0.0000 F   0  0  0  0  0  0  0  0  0  0  0  0
    4.4462    4.2990    0.0000 F   0  0  0  0  0  0  0  0  0  0  0  0
    6.4952    3.7500    0.0000 C   0  0  0  0  0  0  0  0  0  0  0  0
    7.7942    3.0000    0.0000 N   0  0  0  0  0  0  0  0  0  0  0  0
  1  2  1  0
  2  3  1  0
  3  4  1  0
  3  5  1  0
  3  6  1  0
  6  7  1  0
  6  8  1  0
  6  9  1  0
  9 10  1  0
  9 11  1  0
  9 12  1  0
 12 13  1  0
 12 14  1  0
 12 15  1  0
 15 16  1  0
M  END
$$$$

     RDKit          2D

 18 18  0  0  0  0  0  0  0  0999 V2000
    3.7500   -1.2990    0.0000 C   0  0  0  0  0  0  0  0  0  0  0  0
    3.0000    0.0000    0.0000 C   0  0  0  0  0  0  0  0  0  0  0  0
    1.5000    0.0000    0.0000 C   0  0  0  0  0  0  0  0  0  0  0  0
    0.7500   -1.2990    0.0000 C   0  0  0  0  0  0  0  0  0  0  0  0
   -0.7500   -1.2990    0.0000 C   0  0  0  0  0  0  0  0  0  0  0  0
   -1.5000    0.0000    0.0000 C   0  0  0  0  0  0  0  0  0  0  0  0
   -3.0000    0.0000    0.0000 C   0  0  0  0  0  0  0  0  0  0  0  0
   -3.0000   -1.5000    0.0000 O   0  0  0  0  0  0  0  0  0  0  0  0
   -4.5000    0.0000    0.0000 C   0  0  0  0  0  0  0  0  0  0  0  0
   -6.0000   -0.0000    0.0000 F   0  0  0  0  0  0  0  0  0  0  0  0
   -4.5000   -1.5000    0.0000 F   0  0  0  0  0  0  0  0  0  0  0  0
   -4.6080    0.8791    0.0000 F   0  0  0  0  0  0  0  0  0  0  0  0
   -3.0000    1.5000    0.0000 C   0  0  0  0  0  0  0  0  0  0  0  0
   -3.0000    3.0000    0.0000 F   0  0  0  0  0  0  0  0  0  0  0  0
   -3.8791    1.6080    0.0000 F   0  0  0  0  0  0  0  0  0  0  0  0
   -1.5446    1.8630    0.0000 F   0  0  0  0  0  0  0  0  0  0  0  0
   -0.7500    1.2990    0.0000 C   0  0  0  0  0  0  0  0  0  0  0  0
    0.7500    1.2990    0.0000 C   0  0  0  0  0  0  0  0  0  0  0  0
  1  2  2  0
  2  3  1  0
  3  4  2  0
  4  5  1  0
  5  6  2  0
  6  7  1  0
  7  8  1  0
  7  9  1  0
  9 10  1  0
  9 11  1  0
  9 12  1  0
  7 13  1  0
 13 14  1  0
 13 15  1  0
 13 16  1  0
  6 17  1  0
 17 18  2  0
 18  3  1  0
M  END
$$$$

     RDKit          2D

 18 17  0  0  0  0  0  0  0  0999 V2000
   -1.2990    0.7500    0.0000 O   0  0  0  0  0  0  0  0  0  0  0  0
    0.0000    0.0000    0.0000 C   0  0  0  0  0  0  0  0  0  0  0  0
    1.2990    0.7500    0.0000 C   0  0  0  0  0  0  0  0  0  0  0  0
    2.0490   -0.5490    0.0000 F   0  0  0  0  0  0  0  0  0  0  0  0
    0.5490    2.0490    0.0000 F   0  0  0  0  0  0  0  0  0  0  0  0
    2.5981    1.5000    0.0000 C   0  0  0  0  0  0  0  0  0  0  0  0
    1.8481    2.7990    0.0000 F   0  0  0  0  0  0  0  0  0  0  0  0
    3.3481    0.2010    0.0000 F   0  0  0  0  0  0  0  0  0  0  0  0
    3.8971    2.2500    0.0000 C   0  0  0  0  0  0  0  0  0  0  0  0
    4.6471    0.9510    0.0000 F   0  0  0  0  0  0  0  0  0  0  0  0
    3.1471    3.5490    0.0000 F   0  0  0  0  0  0  0  0  0  0  0  0
    5.1962    3.0000    0.0000 C   0  0  0  0  0  0  0  0  0  0  0  0
    4.4462    4.2990    0.0000 F   0  0  0  0  0  0  0  0  0  0  0  0
    5.9462    1.7010    0.0000 F   0  0  0  0  0  0  0  0  0  0  0  0
    6.4952    3.7500    0.0000 C   0  0  0  0  0  0  0  0  0  0  0  0
    7.7942    4.5000    0.0000 F   0  0  0  0  0  0  0  0  0  0  0  0
    7.2452    2.4510    0.0000 F   0  0  0  0  0  0  0  0  0  0  0  0
    5.7452    5.0490    0.0000 F   0  0  0  0  0  0  0  0  0  0  0  0
  1  2  1  0
  2  3  1  0
  3  4  1  0
  3  5  1  0
  3  6  1  0
  6  7  1  0
  6  8  1  0
  6  9  1  0
  9 10  1  0
  9 11  1  0
  9 12  1  0
 12 13  1  0
 12 14  1  0
 12 15  1  0
 15 16  1  0
 15 17  1  0
 15 18  1  0
M  END
$$$$

     RDKit          2D

 10  9  0  0  0  0  0  0  0  0999 V2000
   -0.0000   -1.5000    0.0000 O   0  0  0  0  0  0  0  0  0  0  0  0
    0.0000    0.0000    0.0000 C   0  0  0  0  0  0  0  0  0  0  0  0
   -1.2990    0.7500    0.0000 O   0  0  0  0  0  0  0  0  0  0  0  0
    1.2990    0.7500    0.0000 C   0  0  0  0  0  0  0  0  0  0  0  0
    2.0490   -0.5490    0.0000 F   0  0  0  0  0  0  0  0  0  0  0  0
    0.5490    2.0490    0.0000 F   0  0  0  0  0  0  0  0  0  0  0  0
    2.5981    1.5000    0.0000 C   0  0  0  0  0  0  0  0  0  0  0  0
    3.8971    2.2500    0.0000 F   0  0  0  0  0  0  0  0  0  0  0  0
    1.8481    2.7990    0.0000 F   0  0  0  0  0  0  0  0  0  0  0  0
    3.3481    0.2010    0.0000 Cl  0  0  0  0  0  0  0  0  0  0  0  0
  1  2  2  0
  2  3  1  0
  2  4  1  0
  4  5  1  0
  4  6  1  0
  4  7  1  0
  7  8  1  0
  7  9  1  0
  7 10  1  0
M  END
$$$$

     RDKit          2D

 10  9  0  0  0  0  0  0  0  0999 V2000
   -1.2990    0.7500    0.0000 O   0  0  0  0  0  0  0  0  0  0  0  0
    0.0000    0.0000    0.0000 C   0  0  0  0  0  0  0  0  0  0  0  0
   -0.0000   -1.5000    0.0000 Br  0  0  0  0  0  0  0  0  0  0  0  0
    1.2990    0.7500    0.0000 C   0  0  0  0  0  0  0  0  0  0  0  0
    0.5490    2.0490    0.0000 F   0  0  0  0  0  0  0  0  0  0  0  0
    2.0490   -0.5490    0.0000 Cl  0  0  0  0  0  0  0  0  0  0  0  0
    2.5981    1.5000    0.0000 C   0  0  0  0  0  0  0  0  0  0  0  0
    3.8971    2.2500    0.0000 F   0  0  0  0  0  0  0  0  0  0  0  0
    1.8481    2.7990    0.0000 F   0  0  0  0  0  0  0  0  0  0  0  0
    3.3481    0.2010    0.0000 F   0  0  0  0  0  0  0  0  0  0  0  0
  1  2  2  0
  2  3  1  0
  2  4  1  0
  4  5  1  0
  4  6  1  0
  4  7  1  0
  7  8  1  0
  7  9  1  0
  7 10  1  0
M  END
$$$$

     RDKit          2D

 25 24  0  0  0  0  0  0  0  0999 V2000
    0.0000    0.0000    0.0000 C   0  0  0  0  0  0  0  0  0  0  0  0
    1.2990    0.7500    0.0000 C   0  0  0  0  0  0  0  0  0  0  0  0
    1.2990    2.2500    0.0000 F   0  0  0  0  0  0  0  0  0  0  0  0
    2.5981   -0.0000    0.0000 C   0  0  0  0  0  0  0  0  0  0  0  0
    2.5981   -1.5000    0.0000 O   0  0  0  0  0  0  0  0  0  0  0  0
    3.8971    0.7500    0.0000 O   0  0  0  0  0  0  0  0  0  0  0  0
    5.1962   -0.0000    0.0000 C   0  0  0  0  0  0  0  0  0  0  0  0
    6.4952    0.7500    0.0000 C   0  0  0  0  0  0  0  0  0  0  0  0
    7.2452   -0.5490    0.0000 F   0  0  0  0  0  0  0  0  0  0  0  0
    5.7452    2.0490    0.0000 F   0  0  0  0  0  0  0  0  0  0  0  0
    7.7942    1.5000    0.0000 C   0  0  0  0  0  0  0  0  0  0  0  0
    7.0442    2.7990    0.0000 F   0  0  0  0  0  0  0  0  0  0  0  0
    8.5442    0.2010    0.0000 F   0  0  0  0  0  0  0  0  0  0  0  0
    9.0933    2.2500    0.0000 C   0  0  0  0  0  0  0  0  0  0  0  0
    9.8433    0.9510    0.0000 F   0  0  0  0  0  0  0  0  0  0  0  0
    8.3433    3.5490    0.0000 F   0  0  0  0  0  0  0  0  0  0  0  0
   10.3923    3.0000    0.0000 C   0  0  0  0  0  0  0  0  0  0  0  0
   11.1423    1.7010    0.0000 F   0  0  0  0  0  0  0  0  0  0  0  0
    9.6423    4.2990    0.0000 F   0  0  0  0  0  0  0  0  0  0  0  0
   11.6913    3.7500    0.0000 C   0  0  0  0  0  0  0  0  0  0  0  0
   10.9413    5.0490    0.0000 F   0  0  0  0  0  0  0  0  0  0  0  0
   12.4413    2.4510    0.0000 F   0  0  0  0  0  0  0  0  0  0  0  0
   12.9904    4.5000    0.0000 C   0  0  0  0  0  0  0  0  0  0  0  0
   12.9904    6.0000    0.0000 F   0  0  0  0  0  0  0  0  0  0  0  0
   14.2894    3.7500    0.0000 F   0  0  0  0  0  0  0  0  0  0  0  0
  1  2  2  0
  2  3  1  0
  2  4  1  0
  4  5  2  0
  4  6  1  0
  6  7  1  0
  7  8  1  0
  8  9  1  0
  8 10  1  0
  8 11  1  0
 11 12  1  0
 11 13  1  0
 11 14  1  0
 14 15  1  0
 14 16  1  0
 14 17  1  0
 17 18  1  0
 17 19  1  0
 17 20  1  0
 20 21  1  0
 20 22  1  0
 20 23  1  0
 23 24  1  0
 23 25  1  0
M  END
$$$$

     RDKit          2D

 22 21  0  0  0  0  0  0  0  0999 V2000
   -0.9510    0.5490    0.0000 C   0  0  0  0  0  0  0  0  0  0  0  0
   -0.9510    2.0490    0.0000 Si  0  0  0  0  0  4  0  0  0  0  0  0
   -0.9510    3.5490    0.0000 C   0  0  0  0  0  0  0  0  0  0  0  0
   -2.4510    2.0490    0.0000 C   0  0  0  0  0  0  0  0  0  0  0  0
    0.5490    2.0490    0.0000 O   0  0  0  0  0  0  0  0  0  0  0  0
    1.2990    3.3481    0.0000 S   0  0  0  0  0  0  0  0  0  0  0  0
    0.0000    4.0981    0.0000 O   0  0  0  0  0  0  0  0  0  0  0  0
    1.9357    2.8683    0.0000 O   0  0  0  0  0  0  0  0  0  0  0  0
    2.0490    4.6471    0.0000 C   0  0  0  0  0  0  0  0  0  0  0  0
    0.7500    5.3971    0.0000 F   0  0  0  0  0  0  0  0  0  0  0  0
    2.7990    5.9462    0.0000 F   0  0  0  0  0  0  0  0  0  0  0  0
    3.3481    3.8971    0.0000 C   0  0  0  0  0  0  0  0  0  0  0  0
    4.0981    5.1962    0.0000 F   0  0  0  0  0  0  0  0  0  0  0  0
    3.0020    3.0818    0.0000 F   0  0  0  0  0  0  0  0  0  0  0  0
    4.6471    3.1471    0.0000 O   0  0  0  0  0  0  0  0  0  0  0  0
    5.9462    3.8971    0.0000 C   0  0  0  0  0  0  0  0  0  0  0  0
    5.1962    5.1962    0.0000 F   0  0  0  0  0  0  0  0  0  0  0  0
    6.6962    2.5981    0.0000 F   0  0  0  0  0  0  0  0  0  0  0  0
    7.2452    4.6471    0.0000 C   0  0  0  0  0  0  0  0  0  0  0  0
    8.5442    5.3971    0.0000 F   0  0  0  0  0  0  0  0  0  0  0  0
    6.4952    5.9462    0.0000 F   0  0  0  0  0  0  0  0  0  0  0  0
    7.9952    3.3481    0.0000 F   0  0  0  0  0  0  0  0  0  0  0  0
  1  2  1  0
  2  3  1  0
  2  4  1  0
  2  5  1  0
  5  6  1  0
  6  7  2  0
  6  8  2  0
  6  9  1  0
  9 10  1  0
  9 11  1  0
  9 12  1  0
 12 13  1  0
 12 14  1  0
 12 15  1  0
 15 16  1  0
 16 17  1  0
 16 18  1  0
 16 19  1  0
 19 20  1  0
 19 21  1  0
 19 22  1  0
M  END
$$$$

     RDKit          2D

 19 18  0  0  0  0  0  0  0  0999 V2000
    0.0000    0.0000    0.0000 C   0  0  0  0  0  0  0  0  0  0  0  0
    1.2990    0.7500    0.0000 O   0  0  0  0  0  0  0  0  0  0  0  0
    2.5981   -0.0000    0.0000 C   0  0  0  0  0  0  0  0  0  0  0  0
    2.5981   -1.5000    0.0000 O   0  0  0  0  0  0  0  0  0  0  0  0
    3.8971    0.7500    0.0000 C   0  0  0  0  0  0  0  0  0  0  0  0
    5.1962   -0.0000    0.0000 C   0  0  0  0  0  0  0  0  0  0  0  0
    5.1962   -1.5000    0.0000 O   0  0  0  0  0  0  0  0  0  0  0  0
    6.4952    0.7500    0.0000 C   0  0  0  0  0  0  0  0  0  0  0  0
    7.2452   -0.5490    0.0000 F   0  0  0  0  0  0  0  0  0  0  0  0
    5.7452    2.0490    0.0000 F   0  0  0  0  0  0  0  0  0  0  0  0
    7.7942    1.5000    0.0000 C   0  0  0  0  0  0  0  0  0  0  0  0
    7.0442    2.7990    0.0000 F   0  0  0  0  0  0  0  0  0  0  0  0
    8.5442    0.2010    0.0000 F   0  0  0  0  0  0  0  0  0  0  0  0
    9.0933    2.2500    0.0000 C   0  0  0  0  0  0  0  0  0  0  0  0
    8.3433    3.5490    0.0000 F   0  0  0  0  0  0  0  0  0  0  0  0
    9.8433    0.9510    0.0000 F   0  0  0  0  0  0  0  0  0  0  0  0
   10.3923    3.0000    0.0000 C   0  0  0  0  0  0  0  0  0  0  0  0
   10.3923    4.5000    0.0000 F   0  0  0  0  0  0  0  0  0  0  0  0
   11.6913    2.2500    0.0000 F   0  0  0  0  0  0  0  0  0  0  0  0
  1  2  1  0
  2  3  1  0
  3  4  2  0
  3  5  1  0
  5  6  1  0
  6  7  2  0
  6  8  1  0
  8  9  1  0
  8 10  1  0
  8 11  1  0
 11 12  1  0
 11 13  1  0
 11 14  1  0
 14 15  1  0
 14 16  1  0
 14 17  1  0
 17 18  1  0
 17 19  1  0
M  END
$$$$

     RDKit          2D

 13 12  0  0  0  0  0  0  0  0999 V2000
   -1.2990    0.7500    0.0000 O   0  0  0  0  0  0  0  0  0  0  0  0
    0.0000    0.0000    0.0000 C   0  0  0  0  0  0  0  0  0  0  0  0
    1.2990    0.7500    0.0000 C   0  0  0  0  0  0  0  0  0  0  0  0
    2.5981   -0.0000    0.0000 C   0  0  0  0  0  0  0  0  0  0  0  0
    1.8481   -1.2990    0.0000 F   0  0  0  0  0  0  0  0  0  0  0  0
    3.8971   -0.7500    0.0000 C   0  0  0  0  0  0  0  0  0  0  0  0
    5.1962   -1.5000    0.0000 F   0  0  0  0  0  0  0  0  0  0  0  0
    3.1471   -2.0490    0.0000 F   0  0  0  0  0  0  0  0  0  0  0  0
    4.4302   -0.0426    0.0000 F   0  0  0  0  0  0  0  0  0  0  0  0
    3.3481    1.2990    0.0000 C   0  0  0  0  0  0  0  0  0  0  0  0
    4.0981    2.5981    0.0000 F   0  0  0  0  0  0  0  0  0  0  0  0
    2.0490    2.0490    0.0000 F   0  0  0  0  0  0  0  0  0  0  0  0
    4.1634    0.9530    0.0000 F   0  0  0  0  0  0  0  0  0  0  0  0
  1  2  1  0
  2  3  1  0
  3  4  1  0
  4  5  1  0
  4  6  1  0
  6  7  1  0
  6  8  1  0
  6  9  1  0
  4 10  1  0
 10 11  1  0
 10 12  1  0
 10 13  1  0
M  END
$$$$

     RDKit          2D

 43 42  0  0  0  0  0  0  0  0999 V2000
   16.8875    9.7500    0.0000 F   0  0  0  0  0  0  0  0  0  0  0  0
   15.5885    9.0000    0.0000 C   0  0  0  0  0  0  0  0  0  0  0  0
   14.8385   10.2990    0.0000 F   0  0  0  0  0  0  0  0  0  0  0  0
   16.3385    7.7010    0.0000 F   0  0  0  0  0  0  0  0  0  0  0  0
   14.2894    8.2500    0.0000 C   0  0  0  0  0  0  0  0  0  0  0  0
   15.0394    6.9510    0.0000 F   0  0  0  0  0  0  0  0  0  0  0  0
   13.5394    9.5490    0.0000 F   0  0  0  0  0  0  0  0  0  0  0  0
   12.9904    7.5000    0.0000 C   0  0  0  0  0  0  0  0  0  0  0  0
   12.2404    8.7990    0.0000 F   0  0  0  0  0  0  0  0  0  0  0  0
   13.7404    6.2010    0.0000 F   0  0  0  0  0  0  0  0  0  0  0  0
   11.6913    6.7500    0.0000 C   0  0  0  0  0  0  0  0  0  0  0  0
   12.4413    5.4510    0.0000 F   0  0  0  0  0  0  0  0  0  0  0  0
   10.9413    8.0490    0.0000 F   0  0  0  0  0  0  0  0  0  0  0  0
   10.3923    6.0000    0.0000 C   0  0  0  0  0  0  0  0  0  0  0  0
    9.6423    7.2990    0.0000 F   0  0  0  0  0  0  0  0  0  0  0  0
   11.1423    4.7010    0.0000 F   0  0  0  0  0  0  0  0  0  0  0  0
    9.0933    5.2500    0.0000 C   0  0  0  0  0  0  0  0  0  0  0  0
    9.8433    3.9510    0.0000 F   0  0  0  0  0  0  0  0  0  0  0  0
    8.3433    6.5490    0.0000 F   0  0  0  0  0  0  0  0  0  0  0  0
    7.7942    4.5000    0.0000 C   0  0  0  0  0  0  0  0  0  0  0  0
    7.0442    5.7990    0.0000 F   0  0  0  0  0  0  0  0  0  0  0  0
    8.5442    3.2010    0.0000 F   0  0  0  0  0  0  0  0  0  0  0  0
    6.4952    3.7500    0.0000 C   0  0  0  0  0  0  0  0  0  0  0  0
    7.2452    2.4510    0.0000 F   0  0  0  0  0  0  0  0  0  0  0  0
    5.7452    5.0490    0.0000 F   0  0  0  0  0  0  0  0  0  0  0  0
    5.1962    3.0000    0.0000 C   0  0  0  0  0  0  0  0  0  0  0  0
    4.4462    4.2990    0.0000 F   0  0  0  0  0  0  0  0  0  0  0  0
    5.9462    1.7010    0.0000 F   0  0  0  0  0  0  0  0  0  0  0  0
    3.8971    2.2500    0.0000 C   0  0  0  0  0  0  0  0  0  0  0  0
    4.6471    0.9510    0.0000 F   0  0  0  0  0  0  0  0  0  0  0  0
    3.1471    3.5490    0.0000 F   0  0  0  0  0  0  0  0  0  0  0  0
    2.5981    1.5000    0.0000 C   0  0  0  0  0  0  0  0  0  0  0  0
    1.8481    2.7990    0.0000 F   0  0  0  0  0  0  0  0  0  0  0  0
    3.3481    0.2010    0.0000 F   0  0  0  0  0  0  0  0  0  0  0  0
    1.2990    0.7500    0.0000 C   0  0  0  0  0  0  0  0  0  0  0  0
    2.0490   -0.5490    0.0000 F   0  0  0  0  0  0  0  0  0  0  0  0
    0.5490    2.0490    0.0000 F   0  0  0  0  0  0  0  0  0  0  0  0
    0.0000    0.0000    0.0000 C   0  0  0  0  0  0  0  0  0  0  0  0
   -1.2990    0.7500    0.0000 C   0  0  0  0  0  0  0  0  0  0  0  0
   -2.5981    0.0000    0.0000 Si  0  0  0  0  0  4  0  0  0  0  0  0
   -3.8971   -0.7500    0.0000 Cl  0  0  0  0  0  0  0  0  0  0  0  0
   -3.3481    1.2990    0.0000 Cl  0  0  0  0  0  0  0  0  0  0  0  0
   -1.8481   -1.2990    0.0000 Cl  0  0  0  0  0  0  0  0  0  0  0  0
  1  2  1  0
  2  3  1  0
  2  4  1  0
  2  5  1  0
  5  6  1  0
  5  7  1  0
  5  8  1  0
  8  9  1  0
  8 10  1  0
  8 11  1  0
 11 12  1  0
 11 13  1  0
 11 14  1  0
 14 15  1  0
 14 16  1  0
 14 17  1  0
 17 18  1  0
 17 19  1  0
 17 20  1  0
 20 21  1  0
 20 22  1  0
 20 23  1  0
 23 24  1  0
 23 25  1  0
 23 26  1  0
 26 27  1  0
 26 28  1  0
 26 29  1  0
 29 30  1  0
 29 31  1  0
 29 32  1  0
 32 33  1  0
 32 34  1  0
 32 35  1  0
 35 36  1  0
 35 37  1  0
 35 38  1  0
 38 39  1  0
 39 40  1  0
 40 41  1  0
 40 42  1  0
 40 43  1  0
M  END
$$$$

     RDKit          2D

 13 12  0  0  0  0  0  0  0  0999 V2000
   -1.2990    0.7500    0.0000 F   0  0  0  0  0  0  0  0  0  0  0  0
    0.0000    0.0000    0.0000 C   0  0  0  0  0  0  0  0  0  0  0  0
   -0.0000   -1.5000    0.0000 F   0  0  0  0  0  0  0  0  0  0  0  0
    1.2990    0.7500    0.0000 C   0  0  0  0  0  0  0  0  0  0  0  0
    1.2990    2.2500    0.0000 F   0  0  0  0  0  0  0  0  0  0  0  0
    2.5981   -0.0000    0.0000 C   0  0  0  0  0  0  0  0  0  0  0  0
    3.3481    1.2990    0.0000 F   0  0  0  0  0  0  0  0  0  0  0  0
    1.8481   -1.2990    0.0000 F   0  0  0  0  0  0  0  0  0  0  0  0
    3.8971   -0.7500    0.0000 O   0  0  0  0  0  0  0  0  0  0  0  0
    3.8971   -2.2500    0.0000 C   0  0  0  0  0  0  0  0  0  0  0  0
    3.8971   -3.7500    0.0000 F   0  0  0  0  0  0  0  0  0  0  0  0
    5.3971   -2.2500    0.0000 F   0  0  0  0  0  0  0  0  0  0  0  0
    2.3971   -2.2500    0.0000 F   0  0  0  0  0  0  0  0  0  0  0  0
  1  2  1  0
  2  3  1  0
  2  4  2  0
  4  5  1  0
  4  6  1  0
  6  7  1  0
  6  8  1  0
  6  9  1  0
  9 10  1  0
 10 11  1  0
 10 12  1  0
 10 13  1  0
M  END
$$$$

     RDKit          2D

 21 21  0  0  0  0  0  0  0  0999 V2000
    6.7500   -2.7990    0.0000 C   0  0  0  0  0  0  0  0  0  0  0  0
    6.7500   -1.2990    0.0000 C   0  0  0  0  0  0  0  0  0  0  0  0
    6.7500    0.2010    0.0000 C   0  0  0  0  0  0  0  0  0  0  0  0
    8.2500   -1.2990    0.0000 C   0  0  0  0  0  0  0  0  0  0  0  0
    5.2500   -1.2990    0.0000 C   0  0  0  0  0  0  0  0  0  0  0  0
    4.5000   -2.5981    0.0000 O   0  0  0  0  0  0  0  0  0  0  0  0
    4.5000    0.0000    0.0000 C   0  0  0  0  0  0  0  0  0  0  0  0
    3.0000    0.0000    0.0000 C   0  0  0  0  0  0  0  0  0  0  0  0
    3.0000   -1.5000    0.0000 O   0  0  0  0  0  0  0  0  0  0  0  0
    1.5000    0.0000    0.0000 C   0  0  0  0  0  0  0  0  0  0  0  0
    0.7500   -1.2990    0.0000 C   0  0  0  0  0  0  0  0  0  0  0  0
   -0.7500   -1.2990    0.0000 C   0  0  0  0  0  0  0  0  0  0  0  0
   -1.5000    0.0000    0.0000 C   0  0  0  0  0  0  0  0  0  0  0  0
   -0.7500    1.2990    0.0000 C   0  0  0  0  0  0  0  0  0  0  0  0
    0.7500    1.2990    0.0000 C   0  0  0  0  0  0  0  0  0  0  0  0
    3.0000    1.5000    0.0000 C   0  0  0  0  0  0  0  0  0  0  0  0
    1.5446    1.8630    0.0000 F   0  0  0  0  0  0  0  0  0  0  0  0
    4.5000    1.5000    0.0000 F   0  0  0  0  0  0  0  0  0  0  0  0
    3.0000    3.0000    0.0000 C   0  0  0  0  0  0  0  0  0  0  0  0
    4.2990    3.7500    0.0000 F   0  0  0  0  0  0  0  0  0  0  0  0
    1.7010    3.7500    0.0000 F   0  0  0  0  0  0  0  0  0  0  0  0
  1  2  1  0
  2  3  1  0
  2  4  1  0
  2  5  1  0
  5  6  2  0
  5  7  1  0
  7  8  1  0
  8  9  1  0
  8 10  1  0
 10 11  2  0
 11 12  1  0
 12 13  2  0
 13 14  1  0
 14 15  2  0
  8 16  1  0
 16 17  1  0
 16 18  1  0
 16 19  1  0
 19 20  1  0
 19 21  1  0
 15 10  1  0
M  END
$$$$

     RDKit          2D

 18 18  0  0  0  0  0  0  0  0999 V2000
    3.3944    0.1110    0.0000 C   0  0  0  0  0  0  0  0  0  0  0  0
    2.3907   -1.0037    0.0000 C   0  0  0  0  0  0  0  0  0  0  0  0
    1.5304   -2.2324    0.0000 C   0  0  0  0  0  0  0  0  0  0  0  0
    3.5054   -2.0074    0.0000 C   0  0  0  0  0  0  0  0  0  0  0  0
    1.2760    0.0000    0.0000 C   0  0  0  0  0  0  0  0  0  0  0  0
    2.3907    1.0037    0.0000 C   0  0  0  0  0  0  0  0  0  0  0  0
    0.3943    1.2135    0.0000 O   0  0  0  0  0  0  0  0  0  0  0  0
   -1.0323    0.7500    0.0000 C   0  0  0  0  0  0  0  0  0  0  0  0
   -1.3442    2.2172    0.0000 O   0  0  0  0  0  0  0  0  0  0  0  0
   -2.5241    0.5932    0.0000 C   0  0  0  0  0  0  0  0  0  0  0  0
   -2.6809    2.0850    0.0000 F   0  0  0  0  0  0  0  0  0  0  0  0
   -2.3673   -0.8986    0.0000 F   0  0  0  0  0  0  0  0  0  0  0  0
   -4.0159    0.4364    0.0000 C   0  0  0  0  0  0  0  0  0  0  0  0
   -4.6260   -0.9339    0.0000 F   0  0  0  0  0  0  0  0  0  0  0  0
   -4.8975    1.6499    0.0000 F   0  0  0  0  0  0  0  0  0  0  0  0
   -1.0323   -0.7500    0.0000 C   0  0  0  0  0  0  0  0  0  0  0  0
    0.3943   -1.2135    0.0000 C   0  0  0  0  0  0  0  0  0  0  0  0
    0.6805   -2.6860    0.0000 O   0  0  0  0  0  0  0  0  0  0  0  0
  1  2  1  0
  2  3  1  0
  2  4  1  0
  2  5  1  0
  5  6  1  0
  5  7  1  0
  7  8  1  0
  8  9  1  0
  8 10  1  0
 10 11  1  0
 10 12  1  0
 10 13  1  0
 13 14  1  0
 13 15  1  0
  8 16  1  0
 16 17  1  0
 17 18  2  0
 17  5  1  0
M  END
$$$$

     RDKit          2D

 94 96  0  0  0  0  0  0  0  0999 V2000
   15.0000    0.0000    0.0000 F   0  0  0  0  0  0  0  0  0  0  0  0
   13.5000    0.0000    0.0000 C   0  0  0  0  0  0  0  0  0  0  0  0
   13.5000    1.5000    0.0000 F   0  0  0  0  0  0  0  0  0  0  0  0
   13.5000   -1.5000    0.0000 F   0  0  0  0  0  0  0  0  0  0  0  0
   12.0000    0.0000    0.0000 C   0  0  0  0  0  0  0  0  0  0  0  0
   12.0000   -1.5000    0.0000 F   0  0  0  0  0  0  0  0  0  0  0  0
   12.0000    1.5000    0.0000 F   0  0  0  0  0  0  0  0  0  0  0  0
   10.5000    0.0000    0.0000 C   0  0  0  0  0  0  0  0  0  0  0  0
   10.5000    1.5000    0.0000 F   0  0  0  0  0  0  0  0  0  0  0  0
   10.5000   -1.5000    0.0000 F   0  0  0  0  0  0  0  0  0  0  0  0
    9.0000    0.0000    0.0000 C   0  0  0  0  0  0  0  0  0  0  0  0
    9.0000   -1.5000    0.0000 F   0  0  0  0  0  0  0  0  0  0  0  0
    9.0000    1.5000    0.0000 F   0  0  0  0  0  0  0  0  0  0  0  0
    7.5000    0.0000    0.0000 C   0  0  0  0  0  0  0  0  0  0  0  0
    7.5000    1.5000    0.0000 F   0  0  0  0  0  0  0  0  0  0  0  0
    7.5000   -1.5000    0.0000 F   0  0  0  0  0  0  0  0  0  0  0  0
    6.0000    0.0000    0.0000 C   0  0  0  0  0  0  0  0  0  0  0  0
    6.0000   -1.5000    0.0000 F   0  0  0  0  0  0  0  0  0  0  0  0
    6.0000    1.5000    0.0000 F   0  0  0  0  0  0  0  0  0  0  0  0
    4.5000    0.0000    0.0000 C   0  0  0  0  0  0  0  0  0  0  0  0
    4.5000    1.5000    0.0000 F   0  0  0  0  0  0  0  0  0  0  0  0
    4.5000   -1.5000    0.0000 F   0  0  0  0  0  0  0  0  0  0  0  0
    3.0000    0.0000    0.0000 C   0  0  0  0  0  0  0  0  0  0  0  0
    3.0000   -1.5000    0.0000 F   0  0  0  0  0  0  0  0  0  0  0  0
    3.0000    1.5000    0.0000 F   0  0  0  0  0  0  0  0  0  0  0  0
    1.5000    0.0000    0.0000 C   0  0  0  0  0  0  0  0  0  0  0  0
    0.7500   -1.2990    0.0000 C   0  0  0  0  0  0  0  0  0  0  0  0
   -0.7500   -1.2990    0.0000 C   0  0  0  0  0  0  0  0  0  0  0  0
   -1.5000    0.0000    0.0000 C   0  0  0  0  0  0  0  0  0  0  0  0
   -3.0000    0.0000    0.0000 P   0  0  0  0  0  0  0  0  0  0  0  0
   -3.7500    1.2990    0.0000 C   0  0  0  0  0  0  0  0  0  0  0  0
   -3.0000    2.5981    0.0000 C   0  0  0  0  0  0  0  0  0  0  0  0
   -3.7500    3.8971    0.0000 C   0  0  0  0  0  0  0  0  0  0  0  0
   -5.2500    3.8971    0.0000 C   0  0  0  0  0  0  0  0  0  0  0  0
   -6.0000    5.1962    0.0000 C   0  0  0  0  0  0  0  0  0  0  0  0
   -4.7010    5.9462    0.0000 F   0  0  0  0  0  0  0  0  0  0  0  0
   -7.2990    4.4462    0.0000 F   0  0  0  0  0  0  0  0  0  0  0  0
   -6.7500    6.4952    0.0000 C   0  0  0  0  0  0  0  0  0  0  0  0
   -8.0490    5.7452    0.0000 F   0  0  0  0  0  0  0  0  0  0  0  0
   -5.4510    7.2452    0.0000 F   0  0  0  0  0  0  0  0  0  0  0  0
   -7.5000    7.7942    0.0000 C   0  0  0  0  0  0  0  0  0  0  0  0
   -6.2010    8.5442    0.0000 F   0  0  0  0  0  0  0  0  0  0  0  0
   -8.7990    7.0442    0.0000 F   0  0  0  0  0  0  0  0  0  0  0  0
   -8.2500    9.0933    0.0000 C   0  0  0  0  0  0  0  0  0  0  0  0
   -9.5490    8.3433    0.0000 F   0  0  0  0  0  0  0  0  0  0  0  0
   -6.9510    9.8433    0.0000 F   0  0  0  0  0  0  0  0  0  0  0  0
   -9.0000   10.3923    0.0000 C   0  0  0  0  0  0  0  0  0  0  0  0
   -7.7010   11.1423    0.0000 F   0  0  0  0  0  0  0  0  0  0  0  0
  -10.2990    9.6423    0.0000 F   0  0  0  0  0  0  0  0  0  0  0  0
   -9.7500   11.6913    0.0000 C   0  0  0  0  0  0  0  0  0  0  0  0
  -11.0490   10.9413    0.0000 F   0  0  0  0  0  0  0  0  0  0  0  0
   -8.4510   12.4413    0.0000 F   0  0  0  0  0  0  0  0  0  0  0  0
  -10.5000   12.9904    0.0000 C   0  0  0  0  0  0  0  0  0  0  0  0
   -9.2010   13.7404    0.0000 F   0  0  0  0  0  0  0  0  0  0  0  0
  -11.7990   12.2404    0.0000 F   0  0  0  0  0  0  0  0  0  0  0  0
  -11.2500   14.2894    0.0000 C   0  0  0  0  0  0  0  0  0  0  0  0
  -12.0000   15.5885    0.0000 F   0  0  0  0  0  0  0  0  0  0  0  0
  -12.5490   13.5394    0.0000 F   0  0  0  0  0  0  0  0  0  0  0  0
   -9.9510   15.0394    0.0000 F   0  0  0  0  0  0  0  0  0  0  0  0
   -6.0000    2.5981    0.0000 C   0  0  0  0  0  0  0  0  0  0  0  0
   -5.2500    1.2990    0.0000 C   0  0  0  0  0  0  0  0  0  0  0  0
   -3.7500   -1.2990    0.0000 C   0  0  0  0  0  0  0  0  0  0  0  0
   -5.2500   -1.2990    0.0000 C   0  0  0  0  0  0  0  0  0  0  0  0
   -6.0000   -2.5981    0.0000 C   0  0  0  0  0  0  0  0  0  0  0  0
   -5.2500   -3.8971    0.0000 C   0  0  0  0  0  0  0  0  0  0  0  0
   -6.0000   -5.1962    0.0000 C   0  0  0  0  0  0  0  0  0  0  0  0
   -7.2990   -4.4462    0.0000 F   0  0  0  0  0  0  0  0  0  0  0  0
   -4.7010   -5.9462    0.0000 F   0  0  0  0  0  0  0  0  0  0  0  0
   -6.7500   -6.4952    0.0000 C   0  0  0  0  0  0  0  0  0  0  0  0
   -5.4510   -7.2452    0.0000 F   0  0  0  0  0  0  0  0  0  0  0  0
   -8.0490   -5.7452    0.0000 F   0  0  0  0  0  0  0  0  0  0  0  0
   -7.5000   -7.7942    0.0000 C   0  0  0  0  0  0  0  0  0  0  0  0
   -8.7990   -7.0442    0.0000 F   0  0  0  0  0  0  0  0  0  0  0  0
   -6.2010   -8.5442    0.0000 F   0  0  0  0  0  0  0  0  0  0  0  0
   -8.2500   -9.0933    0.0000 C   0  0  0  0  0  0  0  0  0  0  0  0
   -6.9510   -9.8433    0.0000 F   0  0  0  0  0  0  0  0  0  0  0  0
   -9.5490   -8.3433    0.0000 F   0  0  0  0  0  0  0  0  0  0  0  0
   -9.0000  -10.3923    0.0000 C   0  0  0  0  0  0  0  0  0  0  0  0
  -10.2990   -9.6423    0.0000 F   0  0  0  0  0  0  0  0  0  0  0  0
   -7.7010  -11.1423    0.0000 F   0  0  0  0  0  0  0  0  0  0  0  0
   -9.7500  -11.6913    0.0000 C   0  0  0  0  0  0  0  0  0  0  0  0
   -8.4510  -12.4413    0.0000 F   0  0  0  0  0  0  0  0  0  0  0  0
  -11.0490  -10.9413    0.0000 F   0  0  0  0  0  0  0  0  0  0  0  0
  -10.5000  -12.9904    0.0000 C   0  0  0  0  0  0  0  0  0  0  0  0
  -11.7990  -12.2404    0.0000 F   0  0  0  0  0  0  0  0  0  0  0  0
   -9.2010  -13.7404    0.0000 F   0  0  0  0  0  0  0  0  0  0  0  0
  -11.2500  -14.2894    0.0000 C   0  0  0  0  0  0  0  0  0  0  0  0
  -12.0000  -15.5885    0.0000 F   0  0  0  0  0  0  0  0  0  0  0  0
   -9.9510  -15.0394    0.0000 F   0  0  0  0  0  0  0  0  0  0  0  0
  -12.5490  -13.5394    0.0000 F   0  0  0  0  0  0  0  0  0  0  0  0
   -3.7500   -3.8971    0.0000 C   0  0  0  0  0  0  0  0  0  0  0  0
   -3.0000   -2.5981    0.0000 C   0  0  0  0  0  0  0  0  0  0  0  0
   -0.7500    1.2990    0.0000 C   0  0  0  0  0  0  0  0  0  0  0  0
    0.7500    1.2990    0.0000 C   0  0  0  0  0  0  0  0  0  0  0  0
  1  2  1  0
  2  3  1  0
  2  4  1  0
  2  5  1  0
  5  6  1  0
  5  7  1  0
  5  8  1  0
  8  9  1  0
  8 10  1  0
  8 11  1  0
 11 12  1  0
 11 13  1  0
 11 14  1  0
 14 15  1  0
 14 16  1  0
 14 17  1  0
 17 18  1  0
 17 19  1  0
 17 20  1  0
 20 21  1  0
 20 22  1  0
 20 23  1  0
 23 24  1  0
 23 25  1  0
 23 26  1  0
 26 27  2  0
 27 28  1  0
 28 29  2  0
 29 30  1  0
 30 31  1  0
 31 32  2  0
 32 33  1  0
 33 34  2  0
 34 35  1  0
 35 36  1  0
 35 37  1  0
 35 38  1  0
 38 39  1  0
 38 40  1  0
 38 41  1  0
 41 42  1  0
 41 43  1  0
 41 44  1  0
 44 45  1  0
 44 46  1  0
 44 47  1  0
 47 48  1  0
 47 49  1  0
 47 50  1  0
 50 51  1  0
 50 52  1  0
 50 53  1  0
 53 54  1  0
 53 55  1  0
 53 56  1  0
 56 57  1  0
 56 58  1  0
 56 59  1  0
 34 60  1  0
 60 61  2  0
 30 62  1  0
 62 63  2  0
 63 64  1  0
 64 65  2  0
 65 66  1  0
 66 67  1  0
 66 68  1  0
 66 69  1  0
 69 70  1  0
 69 71  1  0
 69 72  1  0
 72 73  1  0
 72 74  1  0
 72 75  1  0
 75 76  1  0
 75 77  1  0
 75 78  1  0
 78 79  1  0
 78 80  1  0
 78 81  1  0
 81 82  1  0
 81 83  1  0
 81 84  1  0
 84 85  1  0
 84 86  1  0
 84 87  1  0
 87 88  1  0
 87 89  1  0
 87 90  1  0
 65 91  1  0
 91 92  2  0
 29 93  1  0
 93 94  2  0
 94 26  1  0
 61 31  1  0
 92 62  1  0
M  END
$$$$

     RDKit          2D

 12 11  0  0  0  0  0  0  0  0999 V2000
    0.0000    0.0000    0.0000 C   0  0  0  0  0  0  0  0  0  0  0  0
    1.2990    0.7500    0.0000 C   0  0  0  0  0  0  0  0  0  0  0  0
    2.5981   -0.0000    0.0000 C   0  0  0  0  0  0  0  0  0  0  0  0
    3.8971    0.7500    0.0000 O   0  0  0  0  0  0  0  0  0  0  0  0
    5.1962   -0.0000    0.0000 C   0  0  0  0  0  0  0  0  0  0  0  0
    6.4952    0.7500    0.0000 C   0  0  0  0  0  0  0  0  0  0  0  0
    7.2452   -0.5490    0.0000 F   0  0  0  0  0  0  0  0  0  0  0  0
    5.7452    2.0490    0.0000 F   0  0  0  0  0  0  0  0  0  0  0  0
    7.7942    1.5000    0.0000 C   0  0  0  0  0  0  0  0  0  0  0  0
    9.0933    2.2500    0.0000 F   0  0  0  0  0  0  0  0  0  0  0  0
    7.0442    2.7990    0.0000 F   0  0  0  0  0  0  0  0  0  0  0  0
    8.5442    0.2010    0.0000 F   0  0  0  0  0  0  0  0  0  0  0  0
  1  2  2  0
  2  3  1  0
  3  4  1  0
  4  5  1  0
  5  6  1  0
  6  7  1  0
  6  8  1  0
  6  9  1  0
  9 10  1  0
  9 11  1  0
  9 12  1  0
M  END
$$$$

     RDKit          2D

 19 18  0  0  0  0  0  0  0  0999 V2000
    1.2990   -2.2500    0.0000 C   0  0  0  0  0  0  0  0  0  0  0  0
    2.5981   -1.5000    0.0000 C   0  0  0  0  0  0  0  0  0  0  0  0
    2.5981   -0.0000    0.0000 O   0  0  0  0  0  0  0  0  0  0  0  0
    3.8971    0.7500    0.0000 S   0  0  0  0  0  0  0  0  0  0  0  0
    4.6471   -0.5490    0.0000 O   0  0  0  0  0  0  0  0  0  0  0  0
    3.4174    1.3866    0.0000 O   0  0  0  0  0  0  0  0  0  0  0  0
    5.1962    1.5000    0.0000 C   0  0  0  0  0  0  0  0  0  0  0  0
    5.9462    0.2010    0.0000 F   0  0  0  0  0  0  0  0  0  0  0  0
    6.4952    2.2500    0.0000 F   0  0  0  0  0  0  0  0  0  0  0  0
    4.4462    2.7990    0.0000 C   0  0  0  0  0  0  0  0  0  0  0  0
    3.6308    2.4530    0.0000 F   0  0  0  0  0  0  0  0  0  0  0  0
    5.7452    3.5490    0.0000 F   0  0  0  0  0  0  0  0  0  0  0  0
    3.6962    4.0981    0.0000 C   0  0  0  0  0  0  0  0  0  0  0  0
    4.9952    4.8481    0.0000 F   0  0  0  0  0  0  0  0  0  0  0  0
    2.3971    3.3481    0.0000 F   0  0  0  0  0  0  0  0  0  0  0  0
    2.9462    5.3971    0.0000 C   0  0  0  0  0  0  0  0  0  0  0  0
    2.1962    6.6962    0.0000 F   0  0  0  0  0  0  0  0  0  0  0  0
    1.6471    4.6471    0.0000 F   0  0  0  0  0  0  0  0  0  0  0  0
    4.2452    6.1471    0.0000 F   0  0  0  0  0  0  0  0  0  0  0  0
  1  2  2  0
  2  3  1  0
  3  4  1  0
  4  5  2  0
  4  6  2  0
  4  7  1  0
  7  8  1  0
  7  9  1  0
  7 10  1  0
 10 11  1  0
 10 12  1  0
 10 13  1  0
 13 14  1  0
 13 15  1  0
 13 16  1  0
 16 17  1  0
 16 18  1  0
 16 19  1  0
M  END
$$$$

     RDKit          2D

 16 15  0  0  0  0  0  0  0  0999 V2000
   -2.5981   -1.5000    0.0000 O   0  0  0  0  0  0  0  0  0  0  0  0
   -2.5981    0.0000    0.0000 C   0  0  0  0  0  0  0  0  0  0  0  0
   -1.2990    0.7500    0.0000 N   0  0  0  0  0  0  0  0  0  0  0  0
    0.0000    0.0000    0.0000 C   0  0  0  0  0  0  0  0  0  0  0  0
    1.2990    0.7500    0.0000 C   0  0  0  0  0  0  0  0  0  0  0  0
    2.5981   -0.0000    0.0000 O   0  0  0  0  0  0  0  0  0  0  0  0
   -3.8971    0.7500    0.0000 C   0  0  0  0  0  0  0  0  0  0  0  0
   -4.6471   -0.5490    0.0000 F   0  0  0  0  0  0  0  0  0  0  0  0
   -3.1471    2.0490    0.0000 F   0  0  0  0  0  0  0  0  0  0  0  0
   -5.1962    1.5000    0.0000 C   0  0  0  0  0  0  0  0  0  0  0  0
   -4.4462    2.7990    0.0000 F   0  0  0  0  0  0  0  0  0  0  0  0
   -5.9462    0.2010    0.0000 F   0  0  0  0  0  0  0  0  0  0  0  0
   -6.4952    2.2500    0.0000 C   0  0  0  0  0  0  0  0  0  0  0  0
   -7.7942    3.0000    0.0000 F   0  0  0  0  0  0  0  0  0  0  0  0
   -7.2452    0.9510    0.0000 F   0  0  0  0  0  0  0  0  0  0  0  0
   -5.7452    3.5490    0.0000 F   0  0  0  0  0  0  0  0  0  0  0  0
  1  2  2  0
  2  3  1  0
  3  4  1  0
  4  5  1  0
  5  6  1  0
  2  7  1  0
  7  8  1  0
  7  9  1  0
  7 10  1  0
 10 11  1  0
 10 12  1  0
 10 13  1  0
 13 14  1  0
 13 15  1  0
 13 16  1  0
M  END
$$$$

     RDKit          2D

 14 13  0  0  0  0  0  0  0  0999 V2000
   -2.5981    0.0000    0.0000 N   0  0  0  0  0  0  0  0  0  0  0  0
   -1.2990    0.7500    0.0000 N   0  0  0  0  0  0  0  0  0  0  0  0
    0.0000    0.0000    0.0000 C   0  0  0  0  0  0  0  0  0  0  0  0
   -0.0000   -1.5000    0.0000 O   0  0  0  0  0  0  0  0  0  0  0  0
    1.2990    0.7500    0.0000 C   0  0  0  0  0  0  0  0  0  0  0  0
    0.5490    2.0490    0.0000 O   0  0  0  0  0  0  0  0  0  0  0  0
    2.0490   -0.5490    0.0000 N   0  0  0  0  0  0  0  0  0  0  0  0
    1.2990   -1.8481    0.0000 N   0  0  0  0  0  0  0  0  0  0  0  0
    2.5981    1.5000    0.0000 C   0  0  0  0  0  0  0  0  0  0  0  0
    1.8481    2.7990    0.0000 F   0  0  0  0  0  0  0  0  0  0  0  0
    3.3481    0.2010    0.0000 F   0  0  0  0  0  0  0  0  0  0  0  0
    3.8971    2.2500    0.0000 C   0  0  0  0  0  0  0  0  0  0  0  0
    5.1962    1.5000    0.0000 F   0  0  0  0  0  0  0  0  0  0  0  0
    3.8971    3.7500    0.0000 F   0  0  0  0  0  0  0  0  0  0  0  0
  1  2  1  0
  2  3  1  0
  3  4  2  0
  3  5  1  0
  5  6  1  0
  5  7  1  0
  7  8  1  0
  5  9  1  0
  9 10  1  0
  9 11  1  0
  9 12  1  0
 12 13  1  0
 12 14  1  0
M  END
$$$$

     RDKit          2D

 23 23  0  0  0  0  0  0  0  0999 V2000
    3.7500    1.2990    0.0000 O   0  0  0  0  0  0  0  0  0  0  0  0
    3.0000    0.0000    0.0000 C   0  0  0  0  0  0  0  0  0  0  0  0
    3.7500   -1.2990    0.0000 O   0  0  0  0  0  0  0  0  0  0  0  0
    1.5000    0.0000    0.0000 C   0  0  0  0  0  0  0  0  0  0  0  0
    0.7500   -1.2990    0.0000 C   0  0  0  0  0  0  0  0  0  0  0  0
   -0.7500   -1.2990    0.0000 C   0  0  0  0  0  0  0  0  0  0  0  0
   -1.5000    0.0000    0.0000 C   0  0  0  0  0  0  0  0  0  0  0  0
   -3.0000    0.0000    0.0000 N   0  0  0  0  0  0  0  0  0  0  0  0
   -3.7500    1.2990    0.0000 C   0  0  0  0  0  0  0  0  0  0  0  0
   -3.0000    2.5981    0.0000 O   0  0  0  0  0  0  0  0  0  0  0  0
   -5.2500    1.2990    0.0000 C   0  0  0  0  0  0  0  0  0  0  0  0
   -5.2500    2.7990    0.0000 F   0  0  0  0  0  0  0  0  0  0  0  0
   -5.2500   -0.2010    0.0000 F   0  0  0  0  0  0  0  0  0  0  0  0
   -6.7500    1.2990    0.0000 C   0  0  0  0  0  0  0  0  0  0  0  0
   -6.7500   -0.2010    0.0000 F   0  0  0  0  0  0  0  0  0  0  0  0
   -6.7500    2.7990    0.0000 F   0  0  0  0  0  0  0  0  0  0  0  0
   -8.2500    1.2990    0.0000 O   0  0  0  0  0  0  0  0  0  0  0  0
   -9.0000    2.5981    0.0000 C   0  0  0  0  0  0  0  0  0  0  0  0
   -9.7500    3.8971    0.0000 F   0  0  0  0  0  0  0  0  0  0  0  0
  -10.2990    1.8481    0.0000 F   0  0  0  0  0  0  0  0  0  0  0  0
   -7.7010    3.3481    0.0000 F   0  0  0  0  0  0  0  0  0  0  0  0
   -0.7500    1.2990    0.0000 C   0  0  0  0  0  0  0  0  0  0  0  0
    0.7500    1.2990    0.0000 C   0  0  0  0  0  0  0  0  0  0  0  0
  1  2  2  0
  2  3  1  0
  2  4  1  0
  4  5  2  0
  5  6  1  0
  6  7  2  0
  7  8  1  0
  8  9  1  0
  9 10  2  0
  9 11  1  0
 11 12  1  0
 11 13  1  0
 11 14  1  0
 14 15  1  0
 14 16  1  0
 14 17  1  0
 17 18  1  0
 18 19  1  0
 18 20  1  0
 18 21  1  0
  7 22  1  0
 22 23  2  0
 23  4  1  0
M  CHG  1   3  -1
M  END
$$$$

     RDKit          2D

  8  7  0  0  0  0  0  0  0  0999 V2000
   -1.5000    0.0000    0.0000 F   0  0  0  0  0  0  0  0  0  0  0  0
    0.0000    0.0000    0.0000 C   0  0  0  0  0  0  0  0  0  0  0  0
    0.0000    1.5000    0.0000 F   0  0  0  0  0  0  0  0  0  0  0  0
   -0.0000   -1.5000    0.0000 Br  0  0  0  0  0  0  0  0  0  0  0  0
    1.5000    0.0000    0.0000 C   0  0  0  0  0  0  0  0  0  0  0  0
    3.0000    0.0000    0.0000 F   0  0  0  0  0  0  0  0  0  0  0  0
    1.5000   -1.5000    0.0000 F   0  0  0  0  0  0  0  0  0  0  0  0
    1.5000    1.5000    0.0000 Br  0  0  0  0  0  0  0  0  0  0  0  0
  1  2  1  0
  2  3  1  0
  2  4  1  0
  2  5  1  0
  5  6  1  0
  5  7  1  0
  5  8  1  0
M  END
$$$$

     RDKit          2D

 27 29  0  0  0  0  0  0  0  0999 V2000
    3.0000    0.0000    0.0000 C   0  0  0  0  0  0  0  0  0  0  0  0
    1.5000    0.0000    0.0000 C   0  0  0  0  0  0  0  0  0  0  0  0
    0.7500   -1.2990    0.0000 C   0  0  0  0  0  0  0  0  0  0  0  0
   -0.7500   -1.2990    0.0000 C   0  0  0  0  0  0  0  0  0  0  0  0
   -1.5000    0.0000    0.0000 C   0  0  0  0  0  0  0  0  0  0  0  0
   -0.7500    1.2990    0.0000 C   0  0  0  0  0  0  0  0  0  0  0  0
   -1.5000    2.5981    0.0000 N   0  0  0  0  0  0  0  0  0  0  0  0
   -2.9918    2.7549    0.0000 C   0  0  0  0  0  0  0  0  0  0  0  0
   -3.9955    1.6402    0.0000 C   0  0  0  0  0  0  0  0  0  0  0  0
   -5.4627    1.9520    0.0000 C   0  0  0  0  0  0  0  0  0  0  0  0
   -6.4664    0.8373    0.0000 C   0  0  0  0  0  0  0  0  0  0  0  0
   -6.0029   -0.5893    0.0000 C   0  0  0  0  0  0  0  0  0  0  0  0
   -4.5356   -0.9012    0.0000 C   0  0  0  0  0  0  0  0  0  0  0  0
   -4.0721   -2.3277    0.0000 O   0  0  0  0  0  0  0  0  0  0  0  0
   -5.0758   -3.4425    0.0000 C   0  0  0  0  0  0  0  0  0  0  0  0
   -6.1905   -2.4388    0.0000 F   0  0  0  0  0  0  0  0  0  0  0  0
   -3.9611   -4.4461    0.0000 F   0  0  0  0  0  0  0  0  0  0  0  0
   -6.0795   -4.5572    0.0000 C   0  0  0  0  0  0  0  0  0  0  0  0
   -7.5467   -4.2453    0.0000 F   0  0  0  0  0  0  0  0  0  0  0  0
   -5.6160   -5.9838    0.0000 F   0  0  0  0  0  0  0  0  0  0  0  0
   -3.5320    0.2136    0.0000 C   0  0  0  0  0  0  0  0  0  0  0  0
   -3.3037    4.2221    0.0000 N   0  0  0  0  0  0  0  0  0  0  0  0
   -2.0046    4.9721    0.0000 N   0  0  0  0  0  0  0  0  0  0  0  0
   -0.8899    3.9684    0.0000 C   0  0  0  0  0  0  0  0  0  0  0  0
    0.5773    4.2803    0.0000 S   0  0  0  0  0  0  0  0  0  0  0  0
    0.7500    1.2990    0.0000 C   0  0  0  0  0  0  0  0  0  0  0  0
    1.5000    2.5981    0.0000 C   0  0  0  0  0  0  0  0  0  0  0  0
  1  2  1  0
  2  3  2  0
  3  4  1  0
  4  5  2  0
  5  6  1  0
  6  7  1  0
  7  8  1  0
  8  9  1  0
  9 10  2  0
 10 11  1  0
 11 12  2  0
 12 13  1  0
 13 14  1  0
 14 15  1  0
 15 16  1  0
 15 17  1  0
 15 18  1  0
 18 19  1  0
 18 20  1  0
 13 21  2  0
  8 22  2  0
 22 23  1  0
 23 24  1  0
 24 25  2  0
  6 26  2  0
 26 27  1  0
 26  2  1  0
 24  7  1  0
 21  9  1  0
M  END
$$$$

     RDKit          2D

 13 12  0  0  0  0  0  0  0  0999 V2000
   -1.2990    0.7500    0.0000 O   0  0  0  0  0  0  0  0  0  0  0  0
    0.0000    0.0000    0.0000 C   0  0  0  0  0  0  0  0  0  0  0  0
   -0.0000   -1.5000    0.0000 F   0  0  0  0  0  0  0  0  0  0  0  0
    1.2990    0.7500    0.0000 C   0  0  0  0  0  0  0  0  0  0  0  0
    2.0490   -0.5490    0.0000 F   0  0  0  0  0  0  0  0  0  0  0  0
    0.5490    2.0490    0.0000 F   0  0  0  0  0  0  0  0  0  0  0  0
    2.5981    1.5000    0.0000 C   0  0  0  0  0  0  0  0  0  0  0  0
    1.8481    2.7990    0.0000 F   0  0  0  0  0  0  0  0  0  0  0  0
    3.3481    0.2010    0.0000 F   0  0  0  0  0  0  0  0  0  0  0  0
    3.8971    2.2500    0.0000 C   0  0  0  0  0  0  0  0  0  0  0  0
    5.1962    3.0000    0.0000 F   0  0  0  0  0  0  0  0  0  0  0  0
    4.6471    0.9510    0.0000 F   0  0  0  0  0  0  0  0  0  0  0  0
    3.1471    3.5490    0.0000 F   0  0  0  0  0  0  0  0  0  0  0  0
  1  2  2  0
  2  3  1  0
  2  4  1  0
  4  5  1  0
  4  6  1  0
  4  7  1  0
  7  8  1  0
  7  9  1  0
  7 10  1  0
 10 11  1  0
 10 12  1  0
 10 13  1  0
M  END
$$$$

     RDKit          2D

 10  9  0  0  0  0  0  0  0  0999 V2000
   -0.0000   -1.5000    0.0000 F   0  0  0  0  0  0  0  0  0  0  0  0
    0.0000    0.0000    0.0000 C   0  0  0  0  0  0  0  0  0  0  0  0
    1.2990    0.7500    0.0000 C   0  0  0  0  0  0  0  0  0  0  0  0
    2.5981    1.5000    0.0000 F   0  0  0  0  0  0  0  0  0  0  0  0
    2.0490   -0.5490    0.0000 F   0  0  0  0  0  0  0  0  0  0  0  0
    0.5490    2.0490    0.0000 F   0  0  0  0  0  0  0  0  0  0  0  0
   -1.2990    0.7500    0.0000 C   0  0  0  0  0  0  0  0  0  0  0  0
   -2.5981    1.5000    0.0000 F   0  0  0  0  0  0  0  0  0  0  0  0
   -2.0490   -0.5490    0.0000 Cl  0  0  0  0  0  0  0  0  0  0  0  0
   -0.5490    2.0490    0.0000 Cl  0  0  0  0  0  0  0  0  0  0  0  0
  1  2  1  0
  2  3  1  0
  3  4  1  0
  3  5  1  0
  3  6  1  0
  2  7  1  0
  7  8  1  0
  7  9  1  0
  7 10  1  0
M  END
$$$$

     RDKit          2D

 25 24  0  0  0  0  0  0  0  0999 V2000
    0.0000    4.0000    0.0000 Na  0  0  0  0  0 15  0  0  0  0  0  0
    0.0000    5.0000    0.0000 Na  0  0  0  0  0 15  0  0  0  0  0  0
    3.0000    0.0000    0.0000 O   0  0  0  0  0  0  0  0  0  0  0  0
    1.5000    0.0000    0.0000 C   0  0  0  0  0  0  0  0  0  0  0  0
    0.7500   -1.2990    0.0000 C   0  0  0  0  0  0  0  0  0  0  0  0
   -0.7500   -1.2990    0.0000 C   0  0  0  0  0  0  0  0  0  0  0  0
   -1.5000    0.0000    0.0000 C   0  0  0  0  0  0  0  0  0  0  0  0
   -3.0000    0.0000    0.0000 C   0  0  0  0  0  0  0  0  0  0  0  0
   -4.5000    0.0000    0.0000 C   0  0  0  0  0  0  0  0  0  0  0  0
   -5.2500    1.2990    0.0000 C   0  0  0  0  0  0  0  0  0  0  0  0
   -6.7500    1.2990    0.0000 C   0  0  0  0  0  0  0  0  0  0  0  0
   -7.5000    0.0000    0.0000 C   0  0  0  0  0  0  0  0  0  0  0  0
   -9.0000    0.0000    0.0000 O   0  0  0  0  0  0  0  0  0  0  0  0
   -6.7500   -1.2990    0.0000 C   0  0  0  0  0  0  0  0  0  0  0  0
   -5.2500   -1.2990    0.0000 C   0  0  0  0  0  0  0  0  0  0  0  0
   -3.0000    1.5000    0.0000 C   0  0  0  0  0  0  0  0  0  0  0  0
   -3.0000    3.0000    0.0000 F   0  0  0  0  0  0  0  0  0  0  0  0
   -4.4554    1.8630    0.0000 F   0  0  0  0  0  0  0  0  0  0  0  0
   -1.5446    1.8630    0.0000 F   0  0  0  0  0  0  0  0  0  0  0  0
   -3.0000   -1.5000    0.0000 C   0  0  0  0  0  0  0  0  0  0  0  0
   -3.0000   -3.0000    0.0000 F   0  0  0  0  0  0  0  0  0  0  0  0
   -4.4554   -1.8630    0.0000 F   0  0  0  0  0  0  0  0  0  0  0  0
   -1.5446   -1.8630    0.0000 F   0  0  0  0  0  0  0  0  0  0  0  0
   -0.7500    1.2990    0.0000 C   0  0  0  0  0  0  0  0  0  0  0  0
    0.7500    1.2990    0.0000 C   0  0  0  0  0  0  0  0  0  0  0  0
  3  4  1  0
  4  5  2  0
  5  6  1  0
  6  7  2  0
  7  8  1  0
  8  9  1  0
  9 10  2  0
 10 11  1  0
 11 12  2  0
 12 13  1  0
 12 14  1  0
 14 15  2  0
  8 16  1  0
 16 17  1  0
 16 18  1  0
 16 19  1  0
  8 20  1  0
 20 21  1  0
 20 22  1  0
 20 23  1  0
  7 24  1  0
 24 25  2  0
 25  4  1  0
 15  9  1  0
M  CHG  4   1   1   2   1   3  -1  13  -1
M  END
$$$$

     RDKit          2D

 19 19  0  0  0  0  0  0  0  0999 V2000
    3.7500    1.2990    0.0000 O   0  0  0  0  0  0  0  0  0  0  0  0
    3.0000    0.0000    0.0000 C   0  0  0  0  0  0  0  0  0  0  0  0
    3.7500   -1.2990    0.0000 O   0  0  0  0  0  0  0  0  0  0  0  0
    1.5000    0.0000    0.0000 C   0  0  0  0  0  0  0  0  0  0  0  0
    0.7500   -1.2990    0.0000 C   0  0  0  0  0  0  0  0  0  0  0  0
   -0.7500   -1.2990    0.0000 C   0  0  0  0  0  0  0  0  0  0  0  0
   -1.5000    0.0000    0.0000 C   0  0  0  0  0  0  0  0  0  0  0  0
   -3.0000    0.0000    0.0000 O   0  0  0  0  0  0  0  0  0  0  0  0
   -3.7500    1.2990    0.0000 C   0  0  0  0  0  0  0  0  0  0  0  0
   -5.2500    1.2990    0.0000 C   0  0  0  0  0  0  0  0  0  0  0  0
   -5.2500    2.7990    0.0000 F   0  0  0  0  0  0  0  0  0  0  0  0
   -5.2500   -0.2010    0.0000 F   0  0  0  0  0  0  0  0  0  0  0  0
   -6.7500    1.2990    0.0000 C   0  0  0  0  0  0  0  0  0  0  0  0
   -8.2500    1.2990    0.0000 F   0  0  0  0  0  0  0  0  0  0  0  0
   -6.7500   -0.2010    0.0000 F   0  0  0  0  0  0  0  0  0  0  0  0
   -6.7500    2.7990    0.0000 F   0  0  0  0  0  0  0  0  0  0  0  0
   -0.7500    1.2990    0.0000 C   0  0  0  0  0  0  0  0  0  0  0  0
    0.7500    1.2990    0.0000 C   0  0  0  0  0  0  0  0  0  0  0  0
    1.5000    2.5981    0.0000 O   0  0  0  0  0  0  0  0  0  0  0  0
  1  2  2  0
  2  3  1  0
  2  4  1  0
  4  5  2  0
  5  6  1  0
  6  7  2  0
  7  8  1  0
  8  9  1  0
  9 10  1  0
 10 11  1  0
 10 12  1  0
 10 13  1  0
 13 14  1  0
 13 15  1  0
 13 16  1  0
  7 17  1  0
 17 18  2  0
 18 19  1  0
 18  4  1  0
M  END
$$$$

     RDKit          2D

 21 21  0  0  0  0  0  0  0  0999 V2000
    3.0000    0.0000    0.0000 F   0  0  0  0  0  0  0  0  0  0  0  0
    1.5000    0.0000    0.0000 C   0  0  0  0  0  0  0  0  0  0  0  0
    0.7500   -1.2990    0.0000 C   0  0  0  0  0  0  0  0  0  0  0  0
    1.5000   -2.5981    0.0000 F   0  0  0  0  0  0  0  0  0  0  0  0
   -0.7500   -1.2990    0.0000 C   0  0  0  0  0  0  0  0  0  0  0  0
   -1.5000   -2.5981    0.0000 F   0  0  0  0  0  0  0  0  0  0  0  0
   -1.5000    0.0000    0.0000 C   0  0  0  0  0  0  0  0  0  0  0  0
   -3.0000    0.0000    0.0000 C   0  0  0  0  0  0  0  0  0  0  0  0
   -3.0000    1.5000    0.0000 F   0  0  0  0  0  0  0  0  0  0  0  0
   -3.0000   -1.5000    0.0000 F   0  0  0  0  0  0  0  0  0  0  0  0
   -4.5000    0.0000    0.0000 C   0  0  0  0  0  0  0  0  0  0  0  0
   -4.5000   -1.5000    0.0000 F   0  0  0  0  0  0  0  0  0  0  0  0
   -4.5000    1.5000    0.0000 F   0  0  0  0  0  0  0  0  0  0  0  0
   -6.0000    0.0000    0.0000 C   0  0  0  0  0  0  0  0  0  0  0  0
   -7.5000    0.0000    0.0000 F   0  0  0  0  0  0  0  0  0  0  0  0
   -6.0000    1.5000    0.0000 F   0  0  0  0  0  0  0  0  0  0  0  0
   -6.0000   -1.5000    0.0000 F   0  0  0  0  0  0  0  0  0  0  0  0
   -0.7500    1.2990    0.0000 C   0  0  0  0  0  0  0  0  0  0  0  0
   -1.5000    2.5981    0.0000 F   0  0  0  0  0  0  0  0  0  0  0  0
    0.7500    1.2990    0.0000 C   0  0  0  0  0  0  0  0  0  0  0  0
    1.5000    2.5981    0.0000 F   0  0  0  0  0  0  0  0  0  0  0  0
  1  2  1  0
  2  3  1  0
  3  4  1  0
  3  5  1  0
  5  6  1  0
  5  7  1  0
  7  8  1  0
  8  9  1  0
  8 10  1  0
  8 11  1  0
 11 12  1  0
 11 13  1  0
 11 14  1  0
 14 15  1  0
 14 16  1  0
 14 17  1  0
  7 18  1  0
 18 19  1  0
 18 20  1  0
 20 21  1  0
 20  2  1  0
M  END
$$$$

     RDKit          2D

 21 20  0  0  0  0  0  0  0  0999 V2000
    5.1962    1.5000    0.0000 F   0  0  0  0  0  0  0  0  0  0  0  0
    3.8971    0.7500    0.0000 C   0  0  0  0  0  0  0  0  0  0  0  0
    4.6471   -0.5490    0.0000 F   0  0  0  0  0  0  0  0  0  0  0  0
    3.1471    2.0490    0.0000 F   0  0  0  0  0  0  0  0  0  0  0  0
    2.5981   -0.0000    0.0000 C   0  0  0  0  0  0  0  0  0  0  0  0
    1.2990    0.7500    0.0000 O   0  0  0  0  0  0  0  0  0  0  0  0
    0.0000    0.0000    0.0000 C   0  0  0  0  0  0  0  0  0  0  0  0
   -1.2990    0.7500    0.0000 O   0  0  0  0  0  0  0  0  0  0  0  0
   -2.5981    0.0000    0.0000 C   0  0  0  0  0  0  0  0  0  0  0  0
   -3.8971    0.7500    0.0000 C   0  0  0  0  0  0  0  0  0  0  0  0
   -5.1962    1.5000    0.0000 F   0  0  0  0  0  0  0  0  0  0  0  0
   -4.6471   -0.5490    0.0000 F   0  0  0  0  0  0  0  0  0  0  0  0
   -3.1471    2.0490    0.0000 F   0  0  0  0  0  0  0  0  0  0  0  0
   -2.5981   -1.5000    0.0000 C   0  0  0  0  0  0  0  0  0  0  0  0
   -2.5981   -3.0000    0.0000 F   0  0  0  0  0  0  0  0  0  0  0  0
   -4.0981   -1.5000    0.0000 F   0  0  0  0  0  0  0  0  0  0  0  0
   -1.0981   -1.5000    0.0000 F   0  0  0  0  0  0  0  0  0  0  0  0
    2.5981   -1.5000    0.0000 C   0  0  0  0  0  0  0  0  0  0  0  0
    2.5981   -3.0000    0.0000 F   0  0  0  0  0  0  0  0  0  0  0  0
    4.0981   -1.5000    0.0000 F   0  0  0  0  0  0  0  0  0  0  0  0
    1.0981   -1.5000    0.0000 F   0  0  0  0  0  0  0  0  0  0  0  0
  1  2  1  0
  2  3  1  0
  2  4  1  0
  2  5  1  0
  5  6  1  0
  6  7  1  0
  7  8  1  0
  8  9  1  0
  9 10  1  0
 10 11  1  0
 10 12  1  0
 10 13  1  0
  9 14  1  0
 14 15  1  0
 14 16  1  0
 14 17  1  0
  5 18  1  0
 18 19  1  0
 18 20  1  0
 18 21  1  0
M  END
$$$$

     RDKit          2D

 40 39  0  0  0  0  0  0  0  0999 V2000
   -1.2990    0.7500    0.0000 O   0  0  0  0  0  0  0  0  0  0  0  0
    0.0000    0.0000    0.0000 C   0  0  0  0  0  0  0  0  0  0  0  0
   -0.0000   -1.5000    0.0000 O   0  0  0  0  0  0  0  0  0  0  0  0
   -1.2990   -2.2500    0.0000 O   0  0  0  0  0  0  0  0  0  0  0  0
   -1.2990   -3.7500    0.0000 C   0  0  0  0  0  0  0  0  0  0  0  0
   -0.5652   -4.0615    0.0000 O   0  0  0  0  0  0  0  0  0  0  0  0
   -2.5981   -4.5000    0.0000 C   0  0  0  0  0  0  0  0  0  0  0  0
   -3.3481   -3.2010    0.0000 F   0  0  0  0  0  0  0  0  0  0  0  0
   -1.8481   -5.7990    0.0000 O   0  0  0  0  0  0  0  0  0  0  0  0
   -0.3481   -5.7990    0.0000 C   0  0  0  0  0  0  0  0  0  0  0  0
   -0.2509   -5.0078    0.0000 F   0  0  0  0  0  0  0  0  0  0  0  0
   -0.3481   -7.2990    0.0000 F   0  0  0  0  0  0  0  0  0  0  0  0
    1.1519   -5.7990    0.0000 C   0  0  0  0  0  0  0  0  0  0  0  0
    1.1519   -7.2990    0.0000 F   0  0  0  0  0  0  0  0  0  0  0  0
    1.1519   -4.2990    0.0000 F   0  0  0  0  0  0  0  0  0  0  0  0
    2.6519   -5.7990    0.0000 C   0  0  0  0  0  0  0  0  0  0  0  0
    4.1519   -5.7990    0.0000 F   0  0  0  0  0  0  0  0  0  0  0  0
    2.6519   -4.2990    0.0000 F   0  0  0  0  0  0  0  0  0  0  0  0
    2.6519   -7.2990    0.0000 F   0  0  0  0  0  0  0  0  0  0  0  0
   -3.8971   -5.2500    0.0000 C   0  0  0  0  0  0  0  0  0  0  0  0
   -5.1962   -6.0000    0.0000 F   0  0  0  0  0  0  0  0  0  0  0  0
   -3.1471   -6.5490    0.0000 F   0  0  0  0  0  0  0  0  0  0  0  0
   -4.6471   -3.9510    0.0000 F   0  0  0  0  0  0  0  0  0  0  0  0
    1.2990    0.7500    0.0000 C   0  0  0  0  0  0  0  0  0  0  0  0
    0.5490    2.0490    0.0000 F   0  0  0  0  0  0  0  0  0  0  0  0
    2.0490   -0.5490    0.0000 O   0  0  0  0  0  0  0  0  0  0  0  0
    3.5490   -0.5490    0.0000 C   0  0  0  0  0  0  0  0  0  0  0  0
    3.7319    0.9398    0.0000 F   0  0  0  0  0  0  0  0  0  0  0  0
    3.5490   -2.0490    0.0000 F   0  0  0  0  0  0  0  0  0  0  0  0
    5.0490   -0.5490    0.0000 C   0  0  0  0  0  0  0  0  0  0  0  0
    5.0490   -2.0490    0.0000 F   0  0  0  0  0  0  0  0  0  0  0  0
    5.0490    0.9510    0.0000 F   0  0  0  0  0  0  0  0  0  0  0  0
    6.5490   -0.5490    0.0000 C   0  0  0  0  0  0  0  0  0  0  0  0
    8.0490   -0.5490    0.0000 F   0  0  0  0  0  0  0  0  0  0  0  0
    6.5490    0.9510    0.0000 F   0  0  0  0  0  0  0  0  0  0  0  0
    6.5490   -2.0490    0.0000 F   0  0  0  0  0  0  0  0  0  0  0  0
    2.5981    1.5000    0.0000 C   0  0  0  0  0  0  0  0  0  0  0  0
    3.8971    2.2500    0.0000 F   0  0  0  0  0  0  0  0  0  0  0  0
    1.8481    2.7990    0.0000 F   0  0  0  0  0  0  0  0  0  0  0  0
    3.7639    0.5561    0.0000 F   0  0  0  0  0  0  0  0  0  0  0  0
  1  2  2  0
  2  3  1  0
  3  4  1  0
  4  5  1  0
  5  6  2  0
  5  7  1  0
  7  8  1  0
  7  9  1  0
  9 10  1  0
 10 11  1  0
 10 12  1  0
 10 13  1  0
 13 14  1  0
 13 15  1  0
 13 16  1  0
 16 17  1  0
 16 18  1  0
 16 19  1  0
  7 20  1  0
 20 21  1  0
 20 22  1  0
 20 23  1  0
  2 24  1  0
 24 25  1  0
 24 26  1  0
 26 27  1  0
 27 28  1  0
 27 29  1  0
 27 30  1  0
 30 31  1  0
 30 32  1  0
 30 33  1  0
 33 34  1  0
 33 35  1  0
 33 36  1  0
 24 37  1  0
 37 38  1  0
 37 39  1  0
 37 40  1  0
M  END
$$$$

     RDKit          2D

 24 23  0  0  0  0  0  0  0  0999 V2000
   -3.8971   -0.7500    0.0000 N   0  0  0  0  0  0  0  0  0  0  0  0
   -2.5981    0.0000    0.0000 N   0  0  0  0  0  0  0  0  0  0  0  0
   -1.2990    0.7500    0.0000 N   0  0  0  0  0  0  0  0  0  0  0  0
    0.0000    0.0000    0.0000 C   0  0  0  0  0  0  0  0  0  0  0  0
    1.2990    0.7500    0.0000 C   0  0  0  0  0  0  0  0  0  0  0  0
    2.5981   -0.0000    0.0000 C   0  0  0  0  0  0  0  0  0  0  0  0
    3.3481    1.2990    0.0000 F   0  0  0  0  0  0  0  0  0  0  0  0
    1.8481   -1.2990    0.0000 F   0  0  0  0  0  0  0  0  0  0  0  0
    3.8971   -0.7500    0.0000 C   0  0  0  0  0  0  0  0  0  0  0  0
    3.1471   -2.0490    0.0000 F   0  0  0  0  0  0  0  0  0  0  0  0
    4.6471    0.5490    0.0000 F   0  0  0  0  0  0  0  0  0  0  0  0
    5.1962   -1.5000    0.0000 C   0  0  0  0  0  0  0  0  0  0  0  0
    5.9462   -0.2010    0.0000 F   0  0  0  0  0  0  0  0  0  0  0  0
    4.4462   -2.7990    0.0000 F   0  0  0  0  0  0  0  0  0  0  0  0
    6.4952   -2.2500    0.0000 C   0  0  0  0  0  0  0  0  0  0  0  0
    5.7452   -3.5490    0.0000 F   0  0  0  0  0  0  0  0  0  0  0  0
    7.2452   -0.9510    0.0000 F   0  0  0  0  0  0  0  0  0  0  0  0
    7.7942   -3.0000    0.0000 C   0  0  0  0  0  0  0  0  0  0  0  0
    8.5442   -1.7010    0.0000 F   0  0  0  0  0  0  0  0  0  0  0  0
    7.0442   -4.2990    0.0000 F   0  0  0  0  0  0  0  0  0  0  0  0
    9.0933   -3.7500    0.0000 C   0  0  0  0  0  0  0  0  0  0  0  0
   10.3923   -4.5000    0.0000 F   0  0  0  0  0  0  0  0  0  0  0  0
    8.3433   -5.0490    0.0000 F   0  0  0  0  0  0  0  0  0  0  0  0
    9.8433   -2.4510    0.0000 F   0  0  0  0  0  0  0  0  0  0  0  0
  1  2  2  0
  2  3  2  0
  3  4  1  0
  4  5  1  0
  5  6  1  0
  6  7  1  0
  6  8  1  0
  6  9  1  0
  9 10  1  0
  9 11  1  0
  9 12  1  0
 12 13  1  0
 12 14  1  0
 12 15  1  0
 15 16  1  0
 15 17  1  0
 15 18  1  0
 18 19  1  0
 18 20  1  0
 18 21  1  0
 21 22  1  0
 21 23  1  0
 21 24  1  0
M  CHG  2   1  -1   2   1
M  END
$$$$

     RDKit          2D

 26 26  0  0  0  0  0  0  0  0999 V2000
    4.2760   -0.0000    0.0000 N   0  0  0  0  0  0  0  0  0  0  0  0
    2.7760    0.0000    0.0000 S   0  0  0  0  0  0  0  0  0  0  0  0
    2.7760   -1.5000    0.0000 O   0  0  0  0  0  0  0  0  0  0  0  0
    2.7760    1.5000    0.0000 O   0  0  0  0  0  0  0  0  0  0  0  0
    1.2760    0.0000    0.0000 C   0  0  0  0  0  0  0  0  0  0  0  0
    0.3943    1.2135    0.0000 N   0  0  0  0  0  0  0  0  0  0  0  0
   -1.0323    0.7500    0.0000 N   0  0  0  0  0  0  0  0  0  0  0  0
   -1.0323   -0.7500    0.0000 C   0  0  0  0  0  0  0  0  0  0  0  0
   -2.2458   -1.6317    0.0000 N   0  0  0  0  0  0  0  0  0  0  0  0
   -3.6161   -1.0216    0.0000 S   0  0  0  0  0  0  0  0  0  0  0  0
   -3.0060    0.3487    0.0000 O   0  0  0  0  0  0  0  0  0  0  0  0
   -3.8492   -1.7839    0.0000 O   0  0  0  0  0  0  0  0  0  0  0  0
   -4.9864   -0.4115    0.0000 C   0  0  0  0  0  0  0  0  0  0  0  0
   -4.3763    0.9589    0.0000 F   0  0  0  0  0  0  0  0  0  0  0  0
   -6.3568    0.1986    0.0000 F   0  0  0  0  0  0  0  0  0  0  0  0
   -5.5966   -1.7818    0.0000 C   0  0  0  0  0  0  0  0  0  0  0  0
   -4.8373   -2.2380    0.0000 F   0  0  0  0  0  0  0  0  0  0  0  0
   -6.9669   -1.1717    0.0000 F   0  0  0  0  0  0  0  0  0  0  0  0
   -6.2067   -3.1521    0.0000 C   0  0  0  0  0  0  0  0  0  0  0  0
   -7.5770   -2.5420    0.0000 F   0  0  0  0  0  0  0  0  0  0  0  0
   -4.8363   -3.7622    0.0000 F   0  0  0  0  0  0  0  0  0  0  0  0
   -6.8168   -4.5224    0.0000 C   0  0  0  0  0  0  0  0  0  0  0  0
   -7.4269   -5.8927    0.0000 F   0  0  0  0  0  0  0  0  0  0  0  0
   -5.4464   -5.1325    0.0000 F   0  0  0  0  0  0  0  0  0  0  0  0
   -8.1871   -3.9123    0.0000 F   0  0  0  0  0  0  0  0  0  0  0  0
    0.3943   -1.2135    0.0000 S   0  0  0  0  0  0  0  0  0  0  0  0
  1  2  1  0
  2  3  2  0
  2  4  2  0
  2  5  1  0
  5  6  2  0
  6  7  1  0
  7  8  2  0
  8  9  1  0
  9 10  1  0
 10 11  2  0
 10 12  2  0
 10 13  1  0
 13 14  1  0
 13 15  1  0
 13 16  1  0
 16 17  1  0
 16 18  1  0
 16 19  1  0
 19 20  1  0
 19 21  1  0
 19 22  1  0
 22 23  1  0
 22 24  1  0
 22 25  1  0
  8 26  1  0
 26  5  1  0
M  END
$$$$

     RDKit          2D

 22 21  0  0  0  0  0  0  0  0999 V2000
   -1.2990    0.7500    0.0000 O   0  0  0  0  0  0  0  0  0  0  0  0
    0.0000    0.0000    0.0000 C   0  0  0  0  0  0  0  0  0  0  0  0
   -0.0000   -1.5000    0.0000 O   0  0  0  0  0  0  0  0  0  0  0  0
    1.2990    0.7500    0.0000 C   0  0  0  0  0  0  0  0  0  0  0  0
    2.0490   -0.5490    0.0000 F   0  0  0  0  0  0  0  0  0  0  0  0
    0.5490    2.0490    0.0000 F   0  0  0  0  0  0  0  0  0  0  0  0
    2.5981    1.5000    0.0000 C   0  0  0  0  0  0  0  0  0  0  0  0
    1.8481    2.7990    0.0000 F   0  0  0  0  0  0  0  0  0  0  0  0
    3.3481    0.2010    0.0000 F   0  0  0  0  0  0  0  0  0  0  0  0
    3.8971    2.2500    0.0000 C   0  0  0  0  0  0  0  0  0  0  0  0
    4.6471    0.9510    0.0000 F   0  0  0  0  0  0  0  0  0  0  0  0
    3.1471    3.5490    0.0000 F   0  0  0  0  0  0  0  0  0  0  0  0
    5.1962    3.0000    0.0000 C   0  0  0  0  0  0  0  0  0  0  0  0
    4.4462    4.2990    0.0000 F   0  0  0  0  0  0  0  0  0  0  0  0
    5.9462    1.7010    0.0000 F   0  0  0  0  0  0  0  0  0  0  0  0
    6.4952    3.7500    0.0000 C   0  0  0  0  0  0  0  0  0  0  0  0
    7.2452    2.4510    0.0000 F   0  0  0  0  0  0  0  0  0  0  0  0
    5.7452    5.0490    0.0000 F   0  0  0  0  0  0  0  0  0  0  0  0
    7.7942    4.5000    0.0000 C   0  0  0  0  0  0  0  0  0  0  0  0
    9.0933    5.2500    0.0000 F   0  0  0  0  0  0  0  0  0  0  0  0
    7.0442    5.7990    0.0000 F   0  0  0  0  0  0  0  0  0  0  0  0
    8.5442    3.2010    0.0000 F   0  0  0  0  0  0  0  0  0  0  0  0
  1  2  1  0
  2  3  1  0
  2  4  1  0
  4  5  1  0
  4  6  1  0
  4  7  1  0
  7  8  1  0
  7  9  1  0
  7 10  1  0
 10 11  1  0
 10 12  1  0
 10 13  1  0
 13 14  1  0
 13 15  1  0
 13 16  1  0
 16 17  1  0
 16 18  1  0
 16 19  1  0
 19 20  1  0
 19 21  1  0
 19 22  1  0
M  END
$$$$

     RDKit          2D

 17 16  0  0  0  0  0  0  0  0999 V2000
    0.7912   -1.4028    0.0000 O   0  0  0  0  0  0  0  0  0  0  0  0
   -0.0000   -1.5000    0.0000 S   0  0  0  0  0  0  0  0  0  0  0  0
   -1.4888   -1.3172    0.0000 O   0  0  0  0  0  0  0  0  0  0  0  0
   -0.0000    0.0000    0.0000 C   0  0  0  0  0  0  0  0  0  0  0  0
    1.5000    0.0000    0.0000 F   0  0  0  0  0  0  0  0  0  0  0  0
   -1.5000    0.0000    0.0000 F   0  0  0  0  0  0  0  0  0  0  0  0
    0.0000    1.5000    0.0000 F   0  0  0  0  0  0  0  0  0  0  0  0
   -0.0000   -3.0000    0.0000 C   0  0  0  0  0  0  0  0  0  0  0  0
   -0.0000   -4.5000    0.0000 F   0  0  0  0  0  0  0  0  0  0  0  0
    1.5000   -3.0000    0.0000 C   0  0  0  0  0  0  0  0  0  0  0  0
    3.0000   -3.0000    0.0000 F   0  0  0  0  0  0  0  0  0  0  0  0
    1.5000   -4.5000    0.0000 F   0  0  0  0  0  0  0  0  0  0  0  0
    1.6080   -2.1209    0.0000 F   0  0  0  0  0  0  0  0  0  0  0  0
   -1.5000   -3.0000    0.0000 C   0  0  0  0  0  0  0  0  0  0  0  0
   -3.0000   -3.0000    0.0000 F   0  0  0  0  0  0  0  0  0  0  0  0
   -1.5000   -4.5000    0.0000 F   0  0  0  0  0  0  0  0  0  0  0  0
   -1.6828   -1.5112    0.0000 F   0  0  0  0  0  0  0  0  0  0  0  0
  1  2  2  0
  2  3  2  0
  2  4  1  0
  4  5  1  0
  4  6  1  0
  4  7  1  0
  2  8  1  0
  8  9  1  0
  8 10  1  0
 10 11  1  0
 10 12  1  0
 10 13  1  0
  8 14  1  0
 14 15  1  0
 14 16  1  0
 14 17  1  0
M  END
$$$$

     RDKit          2D

 13 12  0  0  0  0  0  0  0  0999 V2000
    0.0000    0.0000    0.0000 C   0  0  0  0  0  0  0  0  0  0  0  0
    1.2990    0.7500    0.0000 C   0  0  0  0  0  0  0  0  0  0  0  0
    2.5981   -0.0000    0.0000 O   0  0  0  0  0  0  0  0  0  0  0  0
    3.8971    0.7500    0.0000 C   0  0  0  0  0  0  0  0  0  0  0  0
    3.8971    2.2500    0.0000 O   0  0  0  0  0  0  0  0  0  0  0  0
    5.1962   -0.0000    0.0000 C   0  0  0  0  0  0  0  0  0  0  0  0
    6.4952    0.7500    0.0000 C   0  0  0  0  0  0  0  0  0  0  0  0
    7.2452   -0.5490    0.0000 F   0  0  0  0  0  0  0  0  0  0  0  0
    5.7452    2.0490    0.0000 F   0  0  0  0  0  0  0  0  0  0  0  0
    7.7942    1.5000    0.0000 C   0  0  0  0  0  0  0  0  0  0  0  0
    9.0933    2.2500    0.0000 F   0  0  0  0  0  0  0  0  0  0  0  0
    7.0442    2.7990    0.0000 F   0  0  0  0  0  0  0  0  0  0  0  0
    8.5442    0.2010    0.0000 F   0  0  0  0  0  0  0  0  0  0  0  0
  1  2  1  0
  2  3  1  0
  3  4  1  0
  4  5  2  0
  4  6  1  0
  6  7  1  0
  7  8  1  0
  7  9  1  0
  7 10  1  0
 10 11  1  0
 10 12  1  0
 10 13  1  0
M  END
$$$$

     RDKit          2D

 22 22  0  0  0  0  0  0  0  0999 V2000
    3.0000    0.0000    0.0000 F   0  0  0  0  0  0  0  0  0  0  0  0
    1.5000    0.0000    0.0000 C   0  0  0  0  0  0  0  0  0  0  0  0
    0.7500   -1.2990    0.0000 C   0  0  0  0  0  0  0  0  0  0  0  0
    1.5000   -2.5981    0.0000 C   0  0  0  0  0  0  0  0  0  0  0  0
    2.7990   -1.8481    0.0000 F   0  0  0  0  0  0  0  0  0  0  0  0
    0.3021   -3.5008    0.0000 F   0  0  0  0  0  0  0  0  0  0  0  0
    2.2500   -3.8971    0.0000 C   0  0  0  0  0  0  0  0  0  0  0  0
    3.0000   -5.1962    0.0000 F   0  0  0  0  0  0  0  0  0  0  0  0
    0.9510   -4.6471    0.0000 F   0  0  0  0  0  0  0  0  0  0  0  0
    3.5490   -3.1471    0.0000 F   0  0  0  0  0  0  0  0  0  0  0  0
   -0.7500   -1.2990    0.0000 C   0  0  0  0  0  0  0  0  0  0  0  0
   -0.6715   -2.7970    0.0000 F   0  0  0  0  0  0  0  0  0  0  0  0
   -2.1595   -1.8121    0.0000 F   0  0  0  0  0  0  0  0  0  0  0  0
   -1.5000    0.0000    0.0000 C   0  0  0  0  0  0  0  0  0  0  0  0
   -2.6491   -0.9642    0.0000 F   0  0  0  0  0  0  0  0  0  0  0  0
   -2.6491    0.9642    0.0000 F   0  0  0  0  0  0  0  0  0  0  0  0
   -0.7500    1.2990    0.0000 C   0  0  0  0  0  0  0  0  0  0  0  0
   -2.1595    1.8121    0.0000 F   0  0  0  0  0  0  0  0  0  0  0  0
   -0.4895    2.7762    0.0000 F   0  0  0  0  0  0  0  0  0  0  0  0
    0.7500    1.2990    0.0000 C   0  0  0  0  0  0  0  0  0  0  0  0
    0.4895    2.7762    0.0000 F   0  0  0  0  0  0  0  0  0  0  0  0
    2.1595    1.8121    0.0000 F   0  0  0  0  0  0  0  0  0  0  0  0
  1  2  1  0
  2  3  2  0
  3  4  1  0
  4  5  1  0
  4  6  1  0
  4  7  1  0
  7  8  1  0
  7  9  1  0
  7 10  1  0
  3 11  1  0
 11 12  1  0
 11 13  1  0
 11 14  1  0
 14 15  1  0
 14 16  1  0
 14 17  1  0
 17 18  1  0
 17 19  1  0
 17 20  1  0
 20 21  1  0
 20 22  1  0
 20  2  1  0
M  END
$$$$

     RDKit          2D

 18 18  0  0  0  0  0  0  0  0999 V2000
    8.7760    0.0000    0.0000 F   0  0  0  0  0  0  0  0  0  0  0  0
    7.2760    0.0000    0.0000 C   0  0  0  0  0  0  0  0  0  0  0  0
    7.2760    1.5000    0.0000 F   0  0  0  0  0  0  0  0  0  0  0  0
    7.2760   -1.5000    0.0000 Cl  0  0  0  0  0  0  0  0  0  0  0  0
    5.7760    0.0000    0.0000 C   0  0  0  0  0  0  0  0  0  0  0  0
    5.7760   -1.5000    0.0000 F   0  0  0  0  0  0  0  0  0  0  0  0
    5.7760    1.5000    0.0000 F   0  0  0  0  0  0  0  0  0  0  0  0
    4.2760    0.0000    0.0000 C   0  0  0  0  0  0  0  0  0  0  0  0
    4.2760    1.5000    0.0000 F   0  0  0  0  0  0  0  0  0  0  0  0
    4.2760   -1.5000    0.0000 F   0  0  0  0  0  0  0  0  0  0  0  0
    2.7760    0.0000    0.0000 C   0  0  0  0  0  0  0  0  0  0  0  0
    2.7760   -1.5000    0.0000 F   0  0  0  0  0  0  0  0  0  0  0  0
    2.7760    1.5000    0.0000 F   0  0  0  0  0  0  0  0  0  0  0  0
    1.2760    0.0000    0.0000 C   0  0  0  0  0  0  0  0  0  0  0  0
    0.3943    1.2135    0.0000 C   0  0  0  0  0  0  0  0  0  0  0  0
   -1.0323    0.7500    0.0000 C   0  0  0  0  0  0  0  0  0  0  0  0
   -1.0323   -0.7500    0.0000 C   0  0  0  0  0  0  0  0  0  0  0  0
    0.3943   -1.2135    0.0000 N   0  0  0  0  0  0  0  0  0  0  0  0
  1  2  1  0
  2  3  1  0
  2  4  1  0
  2  5  1  0
  5  6  1  0
  5  7  1  0
  5  8  1  0
  8  9  1  0
  8 10  1  0
  8 11  1  0
 11 12  1  0
 11 13  1  0
 11 14  1  0
 14 15  2  0
 15 16  1  0
 16 17  2  0
 17 18  1  0
 18 14  1  0
M  END
$$$$

     RDKit          2D

 18 17  0  0  0  0  0  0  0  0999 V2000
   -1.5000    0.0000    0.0000 F   0  0  0  0  0  0  0  0  0  0  0  0
    0.0000    0.0000    0.0000 C   0  0  0  0  0  0  0  0  0  0  0  0
    0.0000    1.5000    0.0000 F   0  0  0  0  0  0  0  0  0  0  0  0
   -0.0000   -1.5000    0.0000 F   0  0  0  0  0  0  0  0  0  0  0  0
    1.5000    0.0000    0.0000 C   0  0  0  0  0  0  0  0  0  0  0  0
    1.5000    1.5000    0.0000 F   0  0  0  0  0  0  0  0  0  0  0  0
    1.5000   -1.5000    0.0000 F   0  0  0  0  0  0  0  0  0  0  0  0
    3.0000    0.0000    0.0000 C   0  0  0  0  0  0  0  0  0  0  0  0
    3.0000    1.5000    0.0000 F   0  0  0  0  0  0  0  0  0  0  0  0
    3.0000   -1.5000    0.0000 F   0  0  0  0  0  0  0  0  0  0  0  0
    4.5000    0.0000    0.0000 O   0  0  0  0  0  0  0  0  0  0  0  0
    5.2500   -1.2990    0.0000 C   0  0  0  0  0  0  0  0  0  0  0  0
    3.9510   -2.0490    0.0000 F   0  0  0  0  0  0  0  0  0  0  0  0
    6.5490   -0.5490    0.0000 F   0  0  0  0  0  0  0  0  0  0  0  0
    6.0000   -2.5981    0.0000 C   0  0  0  0  0  0  0  0  0  0  0  0
    6.7500   -3.8971    0.0000 F   0  0  0  0  0  0  0  0  0  0  0  0
    4.7010   -3.3481    0.0000 F   0  0  0  0  0  0  0  0  0  0  0  0
    7.2990   -1.8481    0.0000 I   0  0  0  0  0  0  0  0  0  0  0  0
  1  2  1  0
  2  3  1  0
  2  4  1  0
  2  5  1  0
  5  6  1  0
  5  7  1  0
  5  8  1  0
  8  9  1  0
  8 10  1  0
  8 11  1  0
 11 12  1  0
 12 13  1  0
 12 14  1  0
 12 15  1  0
 15 16  1  0
 15 17  1  0
 15 18  1  0
M  END
$$$$

     RDKit          2D

 10  9  0  0  0  0  0  0  0  0999 V2000
    2.5981    1.5000    0.0000 F   0  0  0  0  0  0  0  0  0  0  0  0
    1.2990    0.7500    0.0000 C   0  0  0  0  0  0  0  0  0  0  0  0
    2.0490   -0.5490    0.0000 F   0  0  0  0  0  0  0  0  0  0  0  0
    0.5490    2.0490    0.0000 F   0  0  0  0  0  0  0  0  0  0  0  0
    0.0000    0.0000    0.0000 C   0  0  0  0  0  0  0  0  0  0  0  0
   -0.0000   -1.5000    0.0000 Br  0  0  0  0  0  0  0  0  0  0  0  0
   -1.2990    0.7500    0.0000 C   0  0  0  0  0  0  0  0  0  0  0  0
   -2.5981    1.5000    0.0000 F   0  0  0  0  0  0  0  0  0  0  0  0
   -2.0490   -0.5490    0.0000 F   0  0  0  0  0  0  0  0  0  0  0  0
   -0.5490    2.0490    0.0000 F   0  0  0  0  0  0  0  0  0  0  0  0
  1  2  1  0
  2  3  1  0
  2  4  1  0
  2  5  1  0
  5  6  1  0
  5  7  1  0
  7  8  1  0
  7  9  1  0
  7 10  1  0
M  END
$$$$

     RDKit          2D

 31 30  0  0  0  0  0  0  0  0999 V2000
   -1.8481   -1.2990    0.0000 O   0  0  0  0  0  0  0  0  0  0  0  0
   -2.5981    0.0000    0.0000 S   0  0  0  0  0  0  0  0  0  0  0  0
   -3.3481    1.2990    0.0000 O   0  0  0  0  0  0  0  0  0  0  0  0
   -1.2990    0.7500    0.0000 O   0  0  0  0  0  0  0  0  0  0  0  0
    0.0000    0.0000    0.0000 C   0  0  0  0  0  0  0  0  0  0  0  0
    1.2990    0.7500    0.0000 C   0  0  0  0  0  0  0  0  0  0  0  0
    2.0490   -0.5490    0.0000 F   0  0  0  0  0  0  0  0  0  0  0  0
    0.5490    2.0490    0.0000 F   0  0  0  0  0  0  0  0  0  0  0  0
    2.5981    1.5000    0.0000 C   0  0  0  0  0  0  0  0  0  0  0  0
    1.8481    2.7990    0.0000 F   0  0  0  0  0  0  0  0  0  0  0  0
    3.3481    0.2010    0.0000 F   0  0  0  0  0  0  0  0  0  0  0  0
    3.8971    2.2500    0.0000 C   0  0  0  0  0  0  0  0  0  0  0  0
    4.6471    0.9510    0.0000 F   0  0  0  0  0  0  0  0  0  0  0  0
    3.1471    3.5490    0.0000 F   0  0  0  0  0  0  0  0  0  0  0  0
    5.1962    3.0000    0.0000 C   0  0  0  0  0  0  0  0  0  0  0  0
    4.4462    4.2990    0.0000 F   0  0  0  0  0  0  0  0  0  0  0  0
    5.9462    1.7010    0.0000 F   0  0  0  0  0  0  0  0  0  0  0  0
    6.4952    3.7500    0.0000 C   0  0  0  0  0  0  0  0  0  0  0  0
    7.2452    2.4510    0.0000 F   0  0  0  0  0  0  0  0  0  0  0  0
    5.7452    5.0490    0.0000 F   0  0  0  0  0  0  0  0  0  0  0  0
    7.7942    4.5000    0.0000 C   0  0  0  0  0  0  0  0  0  0  0  0
    7.0442    5.7990    0.0000 F   0  0  0  0  0  0  0  0  0  0  0  0
    8.5442    3.2010    0.0000 F   0  0  0  0  0  0  0  0  0  0  0  0
    9.0933    5.2500    0.0000 C   0  0  0  0  0  0  0  0  0  0  0  0
   10.3923    6.0000    0.0000 F   0  0  0  0  0  0  0  0  0  0  0  0
    9.8433    3.9510    0.0000 F   0  0  0  0  0  0  0  0  0  0  0  0
    8.3433    6.5490    0.0000 F   0  0  0  0  0  0  0  0  0  0  0  0
   -3.8971   -0.7500    0.0000 C   0  0  0  0  0  0  0  0  0  0  0  0
   -3.1471   -2.0490    0.0000 F   0  0  0  0  0  0  0  0  0  0  0  0
   -4.6471    0.5490    0.0000 F   0  0  0  0  0  0  0  0  0  0  0  0
   -5.1962   -1.5000    0.0000 F   0  0  0  0  0  0  0  0  0  0  0  0
  1  2  2  0
  2  3  2  0
  2  4  1  0
  4  5  1  0
  5  6  1  0
  6  7  1  0
  6  8  1  0
  6  9  1  0
  9 10  1  0
  9 11  1  0
  9 12  1  0
 12 13  1  0
 12 14  1  0
 12 15  1  0
 15 16  1  0
 15 17  1  0
 15 18  1  0
 18 19  1  0
 18 20  1  0
 18 21  1  0
 21 22  1  0
 21 23  1  0
 21 24  1  0
 24 25  1  0
 24 26  1  0
 24 27  1  0
  2 28  1  0
 28 29  1  0
 28 30  1  0
 28 31  1  0
M  END
$$$$

     RDKit          2D

 16 16  0  0  0  0  0  0  0  0999 V2000
    4.5000    0.0000    0.0000 N   0  0  0  0  0  0  0  0  0  0  0  0
    3.0000    0.0000    0.0000 C   0  0  0  0  0  0  0  0  0  0  0  0
    1.5000    0.0000    0.0000 C   0  0  0  0  0  0  0  0  0  0  0  0
    0.7500   -1.2990    0.0000 C   0  0  0  0  0  0  0  0  0  0  0  0
    1.5000   -2.5981    0.0000 N   0  0  0  0  0  0  0  0  0  0  0  0
   -0.7500   -1.2990    0.0000 C   0  0  0  0  0  0  0  0  0  0  0  0
   -0.4895   -2.7762    0.0000 F   0  0  0  0  0  0  0  0  0  0  0  0
   -2.1595   -1.8121    0.0000 F   0  0  0  0  0  0  0  0  0  0  0  0
   -1.5000    0.0000    0.0000 C   0  0  0  0  0  0  0  0  0  0  0  0
   -2.6491   -0.9642    0.0000 F   0  0  0  0  0  0  0  0  0  0  0  0
   -2.6491    0.9642    0.0000 F   0  0  0  0  0  0  0  0  0  0  0  0
   -0.7500    1.2990    0.0000 C   0  0  0  0  0  0  0  0  0  0  0  0
   -2.1595    1.8121    0.0000 F   0  0  0  0  0  0  0  0  0  0  0  0
   -0.4895    2.7762    0.0000 F   0  0  0  0  0  0  0  0  0  0  0  0
    0.7500    1.2990    0.0000 C   0  0  0  0  0  0  0  0  0  0  0  0
    1.5000    2.5981    0.0000 N   0  0  0  0  0  0  0  0  0  0  0  0
  1  2  3  0
  2  3  1  0
  3  4  2  0
  4  5  1  0
  4  6  1  0
  6  7  1  0
  6  8  1  0
  6  9  1  0
  9 10  1  0
  9 11  1  0
  9 12  1  0
 12 13  1  0
 12 14  1  0
 12 15  1  0
 15 16  2  0
 15  3  1  0
M  END
$$$$

     RDKit          2D

 17 16  0  0  0  0  0  0  0  0999 V2000
   -0.0000   -1.5000    0.0000 O   0  0  0  0  0  0  0  0  0  0  0  0
    0.0000    0.0000    0.0000 C   0  0  0  0  0  0  0  0  0  0  0  0
   -1.2990    0.7500    0.0000 O   0  0  0  0  0  0  0  0  0  0  0  0
    1.2990    0.7500    0.0000 C   0  0  0  0  0  0  0  0  0  0  0  0
    2.0490   -0.5490    0.0000 F   0  0  0  0  0  0  0  0  0  0  0  0
    0.5490    2.0490    0.0000 F   0  0  0  0  0  0  0  0  0  0  0  0
    2.5981    1.5000    0.0000 O   0  0  0  0  0  0  0  0  0  0  0  0
    2.5981    3.0000    0.0000 C   0  0  0  0  0  0  0  0  0  0  0  0
    1.0981    3.0000    0.0000 F   0  0  0  0  0  0  0  0  0  0  0  0
    3.4772    2.8920    0.0000 F   0  0  0  0  0  0  0  0  0  0  0  0
    2.5981    4.5000    0.0000 C   0  0  0  0  0  0  0  0  0  0  0  0
    2.5981    6.0000    0.0000 F   0  0  0  0  0  0  0  0  0  0  0  0
    1.0981    4.5000    0.0000 F   0  0  0  0  0  0  0  0  0  0  0  0
    4.0981    4.5000    0.0000 S   0  0  0  0  0  0  0  0  0  0  0  0
    5.5981    4.5000    0.0000 O   0  0  0  0  0  0  0  0  0  0  0  0
    4.0981    6.0000    0.0000 O   0  0  0  0  0  0  0  0  0  0  0  0
    4.1952    3.7088    0.0000 F   0  0  0  0  0  0  0  0  0  0  0  0
  1  2  2  0
  2  3  1  0
  2  4  1  0
  4  5  1  0
  4  6  1  0
  4  7  1  0
  7  8  1  0
  8  9  1  0
  8 10  1  0
  8 11  1  0
 11 12  1  0
 11 13  1  0
 11 14  1  0
 14 15  2  0
 14 16  2  0
 14 17  1  0
M  END
$$$$

     RDKit          2D

 19 19  0  0  0  0  0  0  0  0999 V2000
    4.0607   -2.5981    0.0000 F   0  0  0  0  0  0  0  0  0  0  0  0
    3.3107   -1.2990    0.0000 C   0  0  0  0  0  0  0  0  0  0  0  0
    4.6097   -0.5490    0.0000 F   0  0  0  0  0  0  0  0  0  0  0  0
    2.0116   -2.0490    0.0000 F   0  0  0  0  0  0  0  0  0  0  0  0
    2.5607    0.0000    0.0000 C   0  0  0  0  0  0  0  0  0  0  0  0
    1.0607    0.0000    0.0000 C   0  0  0  0  0  0  0  0  0  0  0  0
   -0.0000   -1.0607    0.0000 C   0  0  0  0  0  0  0  0  0  0  0  0
    1.0607   -2.1213    0.0000 F   0  0  0  0  0  0  0  0  0  0  0  0
   -1.0607   -2.1213    0.0000 F   0  0  0  0  0  0  0  0  0  0  0  0
   -1.0607    0.0000    0.0000 C   0  0  0  0  0  0  0  0  0  0  0  0
   -2.1213   -1.0607    0.0000 F   0  0  0  0  0  0  0  0  0  0  0  0
   -2.1213    1.0607    0.0000 F   0  0  0  0  0  0  0  0  0  0  0  0
    0.0000    1.0607    0.0000 C   0  0  0  0  0  0  0  0  0  0  0  0
   -1.0607    2.1213    0.0000 F   0  0  0  0  0  0  0  0  0  0  0  0
    1.0607    2.1213    0.0000 F   0  0  0  0  0  0  0  0  0  0  0  0
    3.3107    1.2990    0.0000 C   0  0  0  0  0  0  0  0  0  0  0  0
    4.0607    2.5981    0.0000 F   0  0  0  0  0  0  0  0  0  0  0  0
    4.6097    0.5490    0.0000 F   0  0  0  0  0  0  0  0  0  0  0  0
    2.0116    2.0490    0.0000 F   0  0  0  0  0  0  0  0  0  0  0  0
  1  2  1  0
  2  3  1  0
  2  4  1  0
  2  5  1  0
  5  6  2  0
  6  7  1  0
  7  8  1  0
  7  9  1  0
  7 10  1  0
 10 11  1  0
 10 12  1  0
 10 13  1  0
 13 14  1  0
 13 15  1  0
  5 16  1  0
 16 17  1  0
 16 18  1  0
 16 19  1  0
 13  6  1  0
M  END
$$$$

     RDKit          2D

 18 19  0  0  0  0  0  0  0  0999 V2000
    3.9138   -5.5924    0.0000 O   0  0  0  0  0  0  0  0  0  0  0  0
    3.3037   -4.2221    0.0000 C   0  0  0  0  0  0  0  0  0  0  0  0
    4.7302   -3.7586    0.0000 C   0  0  0  0  0  0  0  0  0  0  0  0
    5.1938   -5.1851    0.0000 F   0  0  0  0  0  0  0  0  0  0  0  0
    4.2667   -2.3320    0.0000 F   0  0  0  0  0  0  0  0  0  0  0  0
    6.1568   -3.2950    0.0000 C   0  0  0  0  0  0  0  0  0  0  0  0
    6.4687   -1.8278    0.0000 F   0  0  0  0  0  0  0  0  0  0  0  0
    7.2715   -4.2987    0.0000 F   0  0  0  0  0  0  0  0  0  0  0  0
    2.9918   -2.7549    0.0000 C   0  0  0  0  0  0  0  0  0  0  0  0
    1.5000   -2.5981    0.0000 C   0  0  0  0  0  0  0  0  0  0  0  0
    0.7500   -1.2990    0.0000 C   0  0  0  0  0  0  0  0  0  0  0  0
    1.5000    0.0000    0.0000 C   0  0  0  0  0  0  0  0  0  0  0  0
    0.7500    1.2990    0.0000 C   0  0  0  0  0  0  0  0  0  0  0  0
   -0.7500    1.2990    0.0000 C   0  0  0  0  0  0  0  0  0  0  0  0
   -1.5000    0.0000    0.0000 C   0  0  0  0  0  0  0  0  0  0  0  0
   -0.7500   -1.2990    0.0000 C   0  0  0  0  0  0  0  0  0  0  0  0
    0.8899   -3.9684    0.0000 N   0  0  0  0  0  0  0  0  0  0  0  0
    2.0046   -4.9721    0.0000 O   0  0  0  0  0  0  0  0  0  0  0  0
  1  2  1  0
  2  3  1  0
  3  4  1  0
  3  5  1  0
  3  6  1  0
  6  7  1  0
  6  8  1  0
  2  9  1  0
  9 10  1  0
 10 11  1  0
 11 12  2  0
 12 13  1  0
 13 14  2  0
 14 15  1  0
 15 16  2  0
 10 17  2  0
 17 18  1  0
 18  2  1  0
 16 11  1  0
M  END
$$$$

     RDKit          2D

 27 27  0  0  0  0  0  0  0  0999 V2000
    5.2500   -1.2990    0.0000 C   0  0  0  0  0  0  0  0  0  0  0  0
    3.7500   -1.2990    0.0000 O   0  0  0  0  0  0  0  0  0  0  0  0
    3.0000    0.0000    0.0000 C   0  0  0  0  0  0  0  0  0  0  0  0
    3.7500    1.2990    0.0000 O   0  0  0  0  0  0  0  0  0  0  0  0
    1.5000    0.0000    0.0000 C   0  0  0  0  0  0  0  0  0  0  0  0
    0.7500   -1.2990    0.0000 C   0  0  0  0  0  0  0  0  0  0  0  0
   -0.7500   -1.2990    0.0000 C   0  0  0  0  0  0  0  0  0  0  0  0
   -1.5000    0.0000    0.0000 C   0  0  0  0  0  0  0  0  0  0  0  0
   -3.0000    0.0000    0.0000 O   0  0  0  0  0  0  0  0  0  0  0  0
   -3.7500    1.2990    0.0000 S   0  0  0  0  0  0  0  0  0  0  0  0
   -2.4510    2.0490    0.0000 O   0  0  0  0  0  0  0  0  0  0  0  0
   -4.3866    0.8193    0.0000 O   0  0  0  0  0  0  0  0  0  0  0  0
   -4.5000    2.5981    0.0000 C   0  0  0  0  0  0  0  0  0  0  0  0
   -3.2010    3.3481    0.0000 F   0  0  0  0  0  0  0  0  0  0  0  0
   -5.2500    3.8971    0.0000 F   0  0  0  0  0  0  0  0  0  0  0  0
   -5.7990    1.8481    0.0000 C   0  0  0  0  0  0  0  0  0  0  0  0
   -6.5490    3.1471    0.0000 F   0  0  0  0  0  0  0  0  0  0  0  0
   -5.4530    1.0327    0.0000 F   0  0  0  0  0  0  0  0  0  0  0  0
   -7.0981    1.0981    0.0000 C   0  0  0  0  0  0  0  0  0  0  0  0
   -6.3481   -0.2010    0.0000 F   0  0  0  0  0  0  0  0  0  0  0  0
   -7.8481    2.3971    0.0000 F   0  0  0  0  0  0  0  0  0  0  0  0
   -8.3971    0.3481    0.0000 C   0  0  0  0  0  0  0  0  0  0  0  0
   -9.6962   -0.4019    0.0000 F   0  0  0  0  0  0  0  0  0  0  0  0
   -7.6471   -0.9510    0.0000 F   0  0  0  0  0  0  0  0  0  0  0  0
   -9.1471    1.6471    0.0000 F   0  0  0  0  0  0  0  0  0  0  0  0
   -0.7500    1.2990    0.0000 C   0  0  0  0  0  0  0  0  0  0  0  0
    0.7500    1.2990    0.0000 C   0  0  0  0  0  0  0  0  0  0  0  0
  1  2  1  0
  2  3  1  0
  3  4  2  0
  3  5  1  0
  5  6  2  0
  6  7  1  0
  7  8  2  0
  8  9  1  0
  9 10  1  0
 10 11  2  0
 10 12  2  0
 10 13  1  0
 13 14  1  0
 13 15  1  0
 13 16  1  0
 16 17  1  0
 16 18  1  0
 16 19  1  0
 19 20  1  0
 19 21  1  0
 19 22  1  0
 22 23  1  0
 22 24  1  0
 22 25  1  0
  8 26  1  0
 26 27  2  0
 27  5  1  0
M  END
$$$$

     RDKit          2D

 14 14  0  0  0  0  0  0  0  0999 V2000
    2.7760    0.0000    0.0000 O   0  0  0  0  0  0  0  0  0  0  0  0
    1.2760    0.0000    0.0000 C   0  0  0  0  0  0  0  0  0  0  0  0
    0.3943    1.2135    0.0000 C   0  0  0  0  0  0  0  0  0  0  0  0
   -0.2158    2.5838    0.0000 F   0  0  0  0  0  0  0  0  0  0  0  0
    1.6933    1.9635    0.0000 F   0  0  0  0  0  0  0  0  0  0  0  0
   -1.0323    0.7500    0.0000 C   0  0  0  0  0  0  0  0  0  0  0  0
   -2.5241    0.5932    0.0000 F   0  0  0  0  0  0  0  0  0  0  0  0
   -1.3442    2.2172    0.0000 F   0  0  0  0  0  0  0  0  0  0  0  0
   -1.0323   -0.7500    0.0000 C   0  0  0  0  0  0  0  0  0  0  0  0
   -1.3442   -2.2172    0.0000 F   0  0  0  0  0  0  0  0  0  0  0  0
   -2.5241   -0.5932    0.0000 F   0  0  0  0  0  0  0  0  0  0  0  0
    0.3943   -1.2135    0.0000 C   0  0  0  0  0  0  0  0  0  0  0  0
    1.6933   -1.9635    0.0000 F   0  0  0  0  0  0  0  0  0  0  0  0
   -0.2158   -2.5838    0.0000 F   0  0  0  0  0  0  0  0  0  0  0  0
  1  2  2  0
  2  3  1  0
  3  4  1  0
  3  5  1  0
  3  6  1  0
  6  7  1  0
  6  8  1  0
  6  9  1  0
  9 10  1  0
  9 11  1  0
  9 12  1  0
 12 13  1  0
 12 14  1  0
 12  2  1  0
M  END
$$$$

     RDKit          2D

 17 16  0  0  0  0  0  0  0  0999 V2000
    1.2990    2.2500    0.0000 O   0  0  0  0  0  0  0  0  0  0  0  0
    1.2990    0.7500    0.0000 C   0  0  0  0  0  0  0  0  0  0  0  0
    2.5981   -0.0000    0.0000 O   0  0  0  0  0  0  0  0  0  0  0  0
    0.0000    0.0000    0.0000 C   0  0  0  0  0  0  0  0  0  0  0  0
   -1.2990    0.7500    0.0000 C   0  0  0  0  0  0  0  0  0  0  0  0
   -2.0490   -0.5490    0.0000 F   0  0  0  0  0  0  0  0  0  0  0  0
   -0.5490    2.0490    0.0000 F   0  0  0  0  0  0  0  0  0  0  0  0
   -2.5981    1.5000    0.0000 C   0  0  0  0  0  0  0  0  0  0  0  0
   -1.8481    2.7990    0.0000 F   0  0  0  0  0  0  0  0  0  0  0  0
   -3.3481    0.2010    0.0000 F   0  0  0  0  0  0  0  0  0  0  0  0
   -3.8971    2.2500    0.0000 C   0  0  0  0  0  0  0  0  0  0  0  0
   -4.6471    0.9510    0.0000 F   0  0  0  0  0  0  0  0  0  0  0  0
   -3.1471    3.5490    0.0000 F   0  0  0  0  0  0  0  0  0  0  0  0
   -5.1962    3.0000    0.0000 C   0  0  0  0  0  0  0  0  0  0  0  0
   -6.4952    3.7500    0.0000 F   0  0  0  0  0  0  0  0  0  0  0  0
   -4.4462    4.2990    0.0000 F   0  0  0  0  0  0  0  0  0  0  0  0
   -5.9462    1.7010    0.0000 Cl  0  0  0  0  0  0  0  0  0  0  0  0
  1  2  2  0
  2  3  1  0
  2  4  1  0
  4  5  1  0
  5  6  1  0
  5  7  1  0
  5  8  1  0
  8  9  1  0
  8 10  1  0
  8 11  1  0
 11 12  1  0
 11 13  1  0
 11 14  1  0
 14 15  1  0
 14 16  1  0
 14 17  1  0
M  END
$$$$

     RDKit          2D

 28 29  0  0  0  0  0  0  0  0999 V2000
    2.6491    0.9642    0.0000 F   0  0  0  0  0  0  0  0  0  0  0  0
    1.5000    0.0000    0.0000 C   0  0  0  0  0  0  0  0  0  0  0  0
    2.6491   -0.9642    0.0000 F   0  0  0  0  0  0  0  0  0  0  0  0
    0.7500   -1.2990    0.0000 C   0  0  0  0  0  0  0  0  0  0  0  0
    2.1595   -1.8121    0.0000 F   0  0  0  0  0  0  0  0  0  0  0  0
    0.4895   -2.7762    0.0000 F   0  0  0  0  0  0  0  0  0  0  0  0
   -0.7500   -1.2990    0.0000 C   0  0  0  0  0  0  0  0  0  0  0  0
   -0.4895   -2.7762    0.0000 F   0  0  0  0  0  0  0  0  0  0  0  0
   -1.8692   -2.0540    0.0000 F   0  0  0  0  0  0  0  0  0  0  0  0
   -1.5000    0.0000    0.0000 C   0  0  0  0  0  0  0  0  0  0  0  0
   -2.1750   -1.1691    0.0000 F   0  0  0  0  0  0  0  0  0  0  0  0
   -3.0000    0.0000    0.0000 C   0  0  0  0  0  0  0  0  0  0  0  0
   -4.4095   -0.5130    0.0000 F   0  0  0  0  0  0  0  0  0  0  0  0
   -3.1047   -1.4963    0.0000 F   0  0  0  0  0  0  0  0  0  0  0  0
   -3.7500    1.2990    0.0000 C   0  0  0  0  0  0  0  0  0  0  0  0
   -4.8991    2.2632    0.0000 F   0  0  0  0  0  0  0  0  0  0  0  0
   -4.8991    0.3349    0.0000 F   0  0  0  0  0  0  0  0  0  0  0  0
   -3.0000    2.5981    0.0000 C   0  0  0  0  0  0  0  0  0  0  0  0
   -2.7395    4.0753    0.0000 F   0  0  0  0  0  0  0  0  0  0  0  0
   -4.4095    3.1111    0.0000 F   0  0  0  0  0  0  0  0  0  0  0  0
   -1.5000    2.5981    0.0000 C   0  0  0  0  0  0  0  0  0  0  0  0
   -0.3808    3.3530    0.0000 F   0  0  0  0  0  0  0  0  0  0  0  0
   -1.7605    4.0753    0.0000 F   0  0  0  0  0  0  0  0  0  0  0  0
   -0.7500    1.2990    0.0000 C   0  0  0  0  0  0  0  0  0  0  0  0
   -0.0750    2.4682    0.0000 F   0  0  0  0  0  0  0  0  0  0  0  0
    0.7500    1.2990    0.0000 C   0  0  0  0  0  0  0  0  0  0  0  0
    0.8547    2.7954    0.0000 F   0  0  0  0  0  0  0  0  0  0  0  0
    2.1595    1.8121    0.0000 F   0  0  0  0  0  0  0  0  0  0  0  0
  1  2  1  0
  2  3  1  0
  2  4  1  0
  4  5  1  0
  4  6  1  0
  4  7  1  0
  7  8  1  0
  7  9  1  0
  7 10  1  0
 10 11  1  0
 10 12  1  0
 12 13  1  0
 12 14  1  0
 12 15  1  0
 15 16  1  0
 15 17  1  0
 15 18  1  0
 18 19  1  0
 18 20  1  0
 18 21  1  0
 21 22  1  0
 21 23  1  0
 21 24  1  0
 24 25  1  0
 24 26  1  0
 26 27  1  0
 26 28  1  0
 26  2  1  0
 24 10  1  0
M  END
$$$$

     RDKit          2D

 51 53  0  0  0  0  0  0  0  0999 V2000
    3.7500   -1.2990    0.0000 C   0  0  0  0  0  0  0  0  0  0  0  0
    3.0000    0.0000    0.0000 O   0  0  0  0  0  0  0  0  0  0  0  0
    1.5000    0.0000    0.0000 C   0  0  0  0  0  0  0  0  0  0  0  0
    0.7500   -1.2990    0.0000 C   0  0  0  0  0  0  0  0  0  0  0  0
   -0.7500   -1.2990    0.0000 C   0  0  0  0  0  0  0  0  0  0  0  0
   -1.5000    0.0000    0.0000 C   0  0  0  0  0  0  0  0  0  0  0  0
   -3.0000    0.0000    0.0000 C   0  0  0  0  0  0  0  0  0  0  0  0
   -3.0000    1.5000    0.0000 Cl  0  0  0  0  0  0  0  0  0  0  0  0
   -4.5000    0.0000    0.0000 C   0  0  0  0  0  0  0  0  0  0  0  0
   -5.2500    1.2990    0.0000 C   0  0  0  0  0  0  0  0  0  0  0  0
   -6.7500    1.2990    0.0000 C   0  0  0  0  0  0  0  0  0  0  0  0
   -7.5000    0.0000    0.0000 C   0  0  0  0  0  0  0  0  0  0  0  0
   -9.0000    0.0000    0.0000 C   0  0  0  0  0  0  0  0  0  0  0  0
   -9.7500    1.2990    0.0000 C   0  0  0  0  0  0  0  0  0  0  0  0
  -11.2500    1.2990    0.0000 C   0  0  0  0  0  0  0  0  0  0  0  0
  -11.2500    2.7990    0.0000 F   0  0  0  0  0  0  0  0  0  0  0  0
  -11.2500   -0.2010    0.0000 F   0  0  0  0  0  0  0  0  0  0  0  0
  -12.7500    1.2990    0.0000 C   0  0  0  0  0  0  0  0  0  0  0  0
  -12.7500   -0.2010    0.0000 F   0  0  0  0  0  0  0  0  0  0  0  0
  -12.7500    2.7990    0.0000 F   0  0  0  0  0  0  0  0  0  0  0  0
  -14.2500    1.2990    0.0000 C   0  0  0  0  0  0  0  0  0  0  0  0
  -14.2500    2.7990    0.0000 F   0  0  0  0  0  0  0  0  0  0  0  0
  -14.2500   -0.2010    0.0000 F   0  0  0  0  0  0  0  0  0  0  0  0
  -15.7500    1.2990    0.0000 C   0  0  0  0  0  0  0  0  0  0  0  0
  -15.7500   -0.2010    0.0000 F   0  0  0  0  0  0  0  0  0  0  0  0
  -15.7500    2.7990    0.0000 F   0  0  0  0  0  0  0  0  0  0  0  0
  -17.2500    1.2990    0.0000 C   0  0  0  0  0  0  0  0  0  0  0  0
  -17.2500    2.7990    0.0000 F   0  0  0  0  0  0  0  0  0  0  0  0
  -17.2500   -0.2010    0.0000 F   0  0  0  0  0  0  0  0  0  0  0  0
  -18.7500    1.2990    0.0000 C   0  0  0  0  0  0  0  0  0  0  0  0
  -18.7500   -0.2010    0.0000 F   0  0  0  0  0  0  0  0  0  0  0  0
  -18.7500    2.7990    0.0000 F   0  0  0  0  0  0  0  0  0  0  0  0
  -20.2500    1.2990    0.0000 C   0  0  0  0  0  0  0  0  0  0  0  0
  -20.2500    2.7990    0.0000 F   0  0  0  0  0  0  0  0  0  0  0  0
  -20.2500   -0.2010    0.0000 F   0  0  0  0  0  0  0  0  0  0  0  0
  -21.7500    1.2990    0.0000 C   0  0  0  0  0  0  0  0  0  0  0  0
  -23.2500    1.2990    0.0000 F   0  0  0  0  0  0  0  0  0  0  0  0
  -21.7500   -0.2010    0.0000 F   0  0  0  0  0  0  0  0  0  0  0  0
  -21.7500    2.7990    0.0000 F   0  0  0  0  0  0  0  0  0  0  0  0
   -6.7500   -1.2990    0.0000 C   0  0  0  0  0  0  0  0  0  0  0  0
   -5.2500   -1.2990    0.0000 C   0  0  0  0  0  0  0  0  0  0  0  0
   -3.0000   -1.5000    0.0000 C   0  0  0  0  0  0  0  0  0  0  0  0
   -4.2990   -2.2500    0.0000 C   0  0  0  0  0  0  0  0  0  0  0  0
   -4.2990   -3.7500    0.0000 C   0  0  0  0  0  0  0  0  0  0  0  0
   -3.0000   -4.5000    0.0000 C   0  0  0  0  0  0  0  0  0  0  0  0
   -3.0000   -6.0000    0.0000 O   0  0  0  0  0  0  0  0  0  0  0  0
   -4.2990   -6.7500    0.0000 C   0  0  0  0  0  0  0  0  0  0  0  0
   -1.7010   -3.7500    0.0000 C   0  0  0  0  0  0  0  0  0  0  0  0
   -1.7010   -2.2500    0.0000 C   0  0  0  0  0  0  0  0  0  0  0  0
   -0.7500    1.2990    0.0000 C   0  0  0  0  0  0  0  0  0  0  0  0
    0.7500    1.2990    0.0000 C   0  0  0  0  0  0  0  0  0  0  0  0
  1  2  1  0
  2  3  1  0
  3  4  2  0
  4  5  1  0
  5  6  2  0
  6  7  1  0
  7  8  1  0
  7  9  1  0
  9 10  2  0
 10 11  1  0
 11 12  2  0
 12 13  1  0
 13 14  1  0
 14 15  1  0
 15 16  1  0
 15 17  1  0
 15 18  1  0
 18 19  1  0
 18 20  1  0
 18 21  1  0
 21 22  1  0
 21 23  1  0
 21 24  1  0
 24 25  1  0
 24 26  1  0
 24 27  1  0
 27 28  1  0
 27 29  1  0
 27 30  1  0
 30 31  1  0
 30 32  1  0
 30 33  1  0
 33 34  1  0
 33 35  1  0
 33 36  1  0
 36 37  1  0
 36 38  1  0
 36 39  1  0
 12 40  1  0
 40 41  2  0
  7 42  1  0
 42 43  2  0
 43 44  1  0
 44 45  2  0
 45 46  1  0
 46 47  1  0
 45 48  1  0
 48 49  2  0
  6 50  1  0
 50 51  2  0
 51  3  1  0
 41  9  1  0
 49 42  1  0
M  END
$$$$

     RDKit          2D

 20 19  0  0  0  0  0  0  0  0999 V2000
   -0.7500   -1.2990    0.0000 F   0  0  0  0  0  0  0  0  0  0  0  0
    0.0000    0.0000    0.0000 C   0  0  0  0  0  0  0  0  0  0  0  0
    1.5000    0.0000    0.0000 C   0  0  0  0  0  0  0  0  0  0  0  0
    2.2500    1.2990    0.0000 F   0  0  0  0  0  0  0  0  0  0  0  0
    2.2500   -1.2990    0.0000 C   0  0  0  0  0  0  0  0  0  0  0  0
    3.5490   -0.5490    0.0000 F   0  0  0  0  0  0  0  0  0  0  0  0
    0.9510   -2.0490    0.0000 F   0  0  0  0  0  0  0  0  0  0  0  0
    3.0000   -2.5981    0.0000 C   0  0  0  0  0  0  0  0  0  0  0  0
    1.7010   -3.3481    0.0000 F   0  0  0  0  0  0  0  0  0  0  0  0
    4.2990   -1.8481    0.0000 F   0  0  0  0  0  0  0  0  0  0  0  0
    3.7500   -3.8971    0.0000 C   0  0  0  0  0  0  0  0  0  0  0  0
    5.0490   -3.1471    0.0000 F   0  0  0  0  0  0  0  0  0  0  0  0
    2.4510   -4.6471    0.0000 F   0  0  0  0  0  0  0  0  0  0  0  0
    4.5000   -5.1962    0.0000 C   0  0  0  0  0  0  0  0  0  0  0  0
    3.2010   -5.9462    0.0000 F   0  0  0  0  0  0  0  0  0  0  0  0
    5.7990   -4.4462    0.0000 F   0  0  0  0  0  0  0  0  0  0  0  0
    5.2500   -6.4952    0.0000 C   0  0  0  0  0  0  0  0  0  0  0  0
    6.0000   -7.7942    0.0000 F   0  0  0  0  0  0  0  0  0  0  0  0
    6.5490   -5.7452    0.0000 F   0  0  0  0  0  0  0  0  0  0  0  0
    3.9510   -7.2452    0.0000 F   0  0  0  0  0  0  0  0  0  0  0  0
  1  2  1  0
  2  3  2  0
  3  4  1  0
  3  5  1  0
  5  6  1  0
  5  7  1  0
  5  8  1  0
  8  9  1  0
  8 10  1  0
  8 11  1  0
 11 12  1  0
 11 13  1  0
 11 14  1  0
 14 15  1  0
 14 16  1  0
 14 17  1  0
 17 18  1  0
 17 19  1  0
 17 20  1  0
M  END
$$$$

     RDKit          2D

 19 19  0  0  0  0  0  0  0  0999 V2000
    5.2500   -1.2990    0.0000 C   0  0  0  0  0  0  0  0  0  0  0  0
    3.7500   -1.2990    0.0000 C   0  0  0  0  0  0  0  0  0  0  0  0
    3.0000    0.0000    0.0000 N   0  0  0  0  0  0  0  0  0  0  0  0
    1.5000    0.0000    0.0000 C   0  0  0  0  0  0  0  0  0  0  0  0
    0.7500   -1.2990    0.0000 C   0  0  0  0  0  0  0  0  0  0  0  0
   -0.7500   -1.2990    0.0000 C   0  0  0  0  0  0  0  0  0  0  0  0
   -1.5000    0.0000    0.0000 C   0  0  0  0  0  0  0  0  0  0  0  0
   -3.0000    0.0000    0.0000 C   0  0  0  0  0  0  0  0  0  0  0  0
   -3.0000   -1.5000    0.0000 O   0  0  0  0  0  0  0  0  0  0  0  0
   -4.5000    0.0000    0.0000 C   0  0  0  0  0  0  0  0  0  0  0  0
   -6.0000   -0.0000    0.0000 F   0  0  0  0  0  0  0  0  0  0  0  0
   -4.5000   -1.5000    0.0000 F   0  0  0  0  0  0  0  0  0  0  0  0
   -4.6080    0.8791    0.0000 F   0  0  0  0  0  0  0  0  0  0  0  0
   -3.0000    1.5000    0.0000 C   0  0  0  0  0  0  0  0  0  0  0  0
   -3.0000    3.0000    0.0000 F   0  0  0  0  0  0  0  0  0  0  0  0
   -3.8791    1.6080    0.0000 F   0  0  0  0  0  0  0  0  0  0  0  0
   -1.5446    1.8630    0.0000 F   0  0  0  0  0  0  0  0  0  0  0  0
   -0.7500    1.2990    0.0000 C   0  0  0  0  0  0  0  0  0  0  0  0
    0.7500    1.2990    0.0000 C   0  0  0  0  0  0  0  0  0  0  0  0
  1  2  1  0
  2  3  1  0
  3  4  1  0
  4  5  2  0
  5  6  1  0
  6  7  2  0
  7  8  1  0
  8  9  1  0
  8 10  1  0
 10 11  1  0
 10 12  1  0
 10 13  1  0
  8 14  1  0
 14 15  1  0
 14 16  1  0
 14 17  1  0
  7 18  1  0
 18 19  2  0
 19  4  1  0
M  END
$$$$

     RDKit          2D

 26 25  0  0  0  0  0  0  0  0999 V2000
    1.2990    2.2500    0.0000 O   0  0  0  0  0  0  0  0  0  0  0  0
    1.2990    0.7500    0.0000 C   0  0  0  0  0  0  0  0  0  0  0  0
    0.0000    0.0000    0.0000 C   0  0  0  0  0  0  0  0  0  0  0  0
   -1.2990    0.7500    0.0000 Br  0  0  0  0  0  0  0  0  0  0  0  0
    2.5981   -0.0000    0.0000 O   0  0  0  0  0  0  0  0  0  0  0  0
    3.8971    0.7500    0.0000 C   0  0  0  0  0  0  0  0  0  0  0  0
    5.1962   -0.0000    0.0000 C   0  0  0  0  0  0  0  0  0  0  0  0
    6.4952    0.7500    0.0000 C   0  0  0  0  0  0  0  0  0  0  0  0
    7.2452   -0.5490    0.0000 F   0  0  0  0  0  0  0  0  0  0  0  0
    5.7452    2.0490    0.0000 F   0  0  0  0  0  0  0  0  0  0  0  0
    7.7942    1.5000    0.0000 C   0  0  0  0  0  0  0  0  0  0  0  0
    7.0442    2.7990    0.0000 F   0  0  0  0  0  0  0  0  0  0  0  0
    8.5442    0.2010    0.0000 F   0  0  0  0  0  0  0  0  0  0  0  0
    9.0933    2.2500    0.0000 C   0  0  0  0  0  0  0  0  0  0  0  0
    9.8433    0.9510    0.0000 F   0  0  0  0  0  0  0  0  0  0  0  0
    8.3433    3.5490    0.0000 F   0  0  0  0  0  0  0  0  0  0  0  0
   10.3923    3.0000    0.0000 C   0  0  0  0  0  0  0  0  0  0  0  0
    9.6423    4.2990    0.0000 F   0  0  0  0  0  0  0  0  0  0  0  0
   11.1423    1.7010    0.0000 F   0  0  0  0  0  0  0  0  0  0  0  0
   11.6913    3.7500    0.0000 C   0  0  0  0  0  0  0  0  0  0  0  0
   12.4413    2.4510    0.0000 F   0  0  0  0  0  0  0  0  0  0  0  0
   10.9413    5.0490    0.0000 F   0  0  0  0  0  0  0  0  0  0  0  0
   12.9904    4.5000    0.0000 C   0  0  0  0  0  0  0  0  0  0  0  0
   14.2894    5.2500    0.0000 F   0  0  0  0  0  0  0  0  0  0  0  0
   12.2404    5.7990    0.0000 F   0  0  0  0  0  0  0  0  0  0  0  0
   13.7404    3.2010    0.0000 F   0  0  0  0  0  0  0  0  0  0  0  0
  1  2  2  0
  2  3  1  0
  3  4  1  0
  2  5  1  0
  5  6  1  0
  6  7  1  0
  7  8  1  0
  8  9  1  0
  8 10  1  0
  8 11  1  0
 11 12  1  0
 11 13  1  0
 11 14  1  0
 14 15  1  0
 14 16  1  0
 14 17  1  0
 17 18  1  0
 17 19  1  0
 17 20  1  0
 20 21  1  0
 20 22  1  0
 20 23  1  0
 23 24  1  0
 23 25  1  0
 23 26  1  0
M  END
$$$$

     RDKit          2D

 28 28  0  0  0  0  0  0  0  0999 V2000
   14.3660   -0.0000    0.0000 F   0  0  0  0  0  0  0  0  0  0  0  0
   12.8660   -0.0000    0.0000 C   0  0  0  0  0  0  0  0  0  0  0  0
   12.8660    1.5000    0.0000 F   0  0  0  0  0  0  0  0  0  0  0  0
   12.8660   -1.5000    0.0000 F   0  0  0  0  0  0  0  0  0  0  0  0
   11.3660    0.0000    0.0000 C   0  0  0  0  0  0  0  0  0  0  0  0
   11.3660   -1.5000    0.0000 F   0  0  0  0  0  0  0  0  0  0  0  0
   11.3660    1.5000    0.0000 F   0  0  0  0  0  0  0  0  0  0  0  0
    9.8660    0.0000    0.0000 C   0  0  0  0  0  0  0  0  0  0  0  0
    9.8660    1.5000    0.0000 F   0  0  0  0  0  0  0  0  0  0  0  0
    9.8660   -1.5000    0.0000 F   0  0  0  0  0  0  0  0  0  0  0  0
    8.3660    0.0000    0.0000 C   0  0  0  0  0  0  0  0  0  0  0  0
    8.3660   -1.5000    0.0000 F   0  0  0  0  0  0  0  0  0  0  0  0
    8.3660    1.5000    0.0000 F   0  0  0  0  0  0  0  0  0  0  0  0
    6.8660    0.0000    0.0000 C   0  0  0  0  0  0  0  0  0  0  0  0
    6.8660    1.5000    0.0000 F   0  0  0  0  0  0  0  0  0  0  0  0
    6.8660   -1.5000    0.0000 F   0  0  0  0  0  0  0  0  0  0  0  0
    5.3660    0.0000    0.0000 C   0  0  0  0  0  0  0  0  0  0  0  0
    5.3660   -1.5000    0.0000 F   0  0  0  0  0  0  0  0  0  0  0  0
    5.3660    1.5000    0.0000 F   0  0  0  0  0  0  0  0  0  0  0  0
    3.8660    0.0000    0.0000 C   0  0  0  0  0  0  0  0  0  0  0  0
    3.8660    1.5000    0.0000 F   0  0  0  0  0  0  0  0  0  0  0  0
    3.8660   -1.5000    0.0000 F   0  0  0  0  0  0  0  0  0  0  0  0
    2.3660    0.0000    0.0000 C   0  0  0  0  0  0  0  0  0  0  0  0
    2.3660   -1.5000    0.0000 F   0  0  0  0  0  0  0  0  0  0  0  0
    2.3660    1.5000    0.0000 F   0  0  0  0  0  0  0  0  0  0  0  0
    0.8660    0.0000    0.0000 C   0  0  0  0  0  0  0  0  0  0  0  0
   -0.4330    0.7500    0.0000 C   0  0  0  0  0  0  0  0  0  0  0  0
   -0.4330   -0.7500    0.0000 O   0  0  0  0  0  0  0  0  0  0  0  0
  1  2  1  0
  2  3  1  0
  2  4  1  0
  2  5  1  0
  5  6  1  0
  5  7  1  0
  5  8  1  0
  8  9  1  0
  8 10  1  0
  8 11  1  0
 11 12  1  0
 11 13  1  0
 11 14  1  0
 14 15  1  0
 14 16  1  0
 14 17  1  0
 17 18  1  0
 17 19  1  0
 17 20  1  0
 20 21  1  0
 20 22  1  0
 20 23  1  0
 23 24  1  0
 23 25  1  0
 23 26  1  0
 26 27  1  0
 27 28  1  0
 28 26  1  0
M  END
$$$$

     RDKit          2D

 30 32  0  0  0  0  0  0  0  0999 V2000
    4.8308   -6.3240    0.0000 N   0  0  0  0  0  0  0  0  0  0  0  0
    4.6740   -4.8322    0.0000 C   0  0  0  0  0  0  0  0  0  0  0  0
    5.8875   -3.9505    0.0000 O   0  0  0  0  0  0  0  0  0  0  0  0
    3.3037   -4.2221    0.0000 C   0  0  0  0  0  0  0  0  0  0  0  0
    2.9918   -2.7549    0.0000 N   0  0  0  0  0  0  0  0  0  0  0  0
    1.5000   -2.5981    0.0000 C   0  0  0  0  0  0  0  0  0  0  0  0
    0.7500   -1.2990    0.0000 C   0  0  0  0  0  0  0  0  0  0  0  0
    1.5000    0.0000    0.0000 C   0  0  0  0  0  0  0  0  0  0  0  0
    0.7500    1.2990    0.0000 C   0  0  0  0  0  0  0  0  0  0  0  0
   -0.7500    1.2990    0.0000 C   0  0  0  0  0  0  0  0  0  0  0  0
   -1.5000    0.0000    0.0000 C   0  0  0  0  0  0  0  0  0  0  0  0
   -3.0000    0.0000    0.0000 C   0  0  0  0  0  0  0  0  0  0  0  0
   -3.7500    1.2990    0.0000 C   0  0  0  0  0  0  0  0  0  0  0  0
   -5.2500    1.2990    0.0000 C   0  0  0  0  0  0  0  0  0  0  0  0
   -6.0000    2.5981    0.0000 F   0  0  0  0  0  0  0  0  0  0  0  0
   -6.0000    0.0000    0.0000 C   0  0  0  0  0  0  0  0  0  0  0  0
   -5.2500   -1.2990    0.0000 C   0  0  0  0  0  0  0  0  0  0  0  0
   -3.7500   -1.2990    0.0000 C   0  0  0  0  0  0  0  0  0  0  0  0
   -3.0000   -2.5981    0.0000 O   0  0  0  0  0  0  0  0  0  0  0  0
   -3.7500   -3.8971    0.0000 C   0  0  0  0  0  0  0  0  0  0  0  0
   -3.0000   -5.1962    0.0000 C   0  0  0  0  0  0  0  0  0  0  0  0
   -4.2990   -5.9462    0.0000 F   0  0  0  0  0  0  0  0  0  0  0  0
   -1.7010   -4.4462    0.0000 F   0  0  0  0  0  0  0  0  0  0  0  0
   -2.2500   -6.4952    0.0000 C   0  0  0  0  0  0  0  0  0  0  0  0
   -1.5000   -7.7942    0.0000 F   0  0  0  0  0  0  0  0  0  0  0  0
   -0.9510   -5.7452    0.0000 F   0  0  0  0  0  0  0  0  0  0  0  0
   -3.5490   -7.2452    0.0000 F   0  0  0  0  0  0  0  0  0  0  0  0
   -0.7500   -1.2990    0.0000 C   0  0  0  0  0  0  0  0  0  0  0  0
    0.8899   -3.9684    0.0000 N   0  0  0  0  0  0  0  0  0  0  0  0
    2.0046   -4.9721    0.0000 N   0  0  0  0  0  0  0  0  0  0  0  0
  1  2  1  0
  2  3  2  0
  2  4  1  0
  4  5  2  0
  5  6  1  0
  6  7  1  0
  7  8  2  0
  8  9  1  0
  9 10  2  0
 10 11  1  0
 11 12  1  0
 12 13  2  0
 13 14  1  0
 14 15  1  0
 14 16  2  0
 16 17  1  0
 17 18  2  0
 18 19  1  0
 19 20  1  0
 20 21  1  0
 21 22  1  0
 21 23  1  0
 21 24  1  0
 24 25  1  0
 24 26  1  0
 24 27  1  0
 11 28  2  0
  6 29  2  0
 29 30  1  0
 30  4  1  0
 28  7  1  0
 18 12  1  0
M  END
$$$$

     RDKit          2D

 14 13  0  0  0  0  0  0  0  0999 V2000
   -1.5000    0.0000    0.0000 F   0  0  0  0  0  0  0  0  0  0  0  0
    0.0000    0.0000    0.0000 C   0  0  0  0  0  0  0  0  0  0  0  0
    0.0000    1.5000    0.0000 F   0  0  0  0  0  0  0  0  0  0  0  0
   -0.0000   -1.5000    0.0000 F   0  0  0  0  0  0  0  0  0  0  0  0
    1.5000    0.0000    0.0000 C   0  0  0  0  0  0  0  0  0  0  0  0
    1.5000    1.5000    0.0000 F   0  0  0  0  0  0  0  0  0  0  0  0
    1.5000   -1.5000    0.0000 F   0  0  0  0  0  0  0  0  0  0  0  0
    3.0000    0.0000    0.0000 C   0  0  0  0  0  0  0  0  0  0  0  0
    3.0000    1.5000    0.0000 F   0  0  0  0  0  0  0  0  0  0  0  0
    3.0000   -1.5000    0.0000 F   0  0  0  0  0  0  0  0  0  0  0  0
    4.5000    0.0000    0.0000 C   0  0  0  0  0  0  0  0  0  0  0  0
    6.0000    0.0000    0.0000 F   0  0  0  0  0  0  0  0  0  0  0  0
    4.5000   -1.5000    0.0000 F   0  0  0  0  0  0  0  0  0  0  0  0
    4.5000    1.5000    0.0000 I   0  0  0  0  0  0  0  0  0  0  0  0
  1  2  1  0
  2  3  1  0
  2  4  1  0
  2  5  1  0
  5  6  1  0
  5  7  1  0
  5  8  1  0
  8  9  1  0
  8 10  1  0
  8 11  1  0
 11 12  1  0
 11 13  1  0
 11 14  1  0
M  END
$$$$

     RDKit          2D

 19 19  0  0  0  0  0  0  0  0999 V2000
    3.7500    1.2990    0.0000 O   0  0  0  0  0  0  0  0  0  0  0  0
    3.0000    0.0000    0.0000 N   0  0  0  0  0  0  0  0  0  0  0  0
    3.7500   -1.2990    0.0000 O   0  0  0  0  0  0  0  0  0  0  0  0
    1.5000    0.0000    0.0000 C   0  0  0  0  0  0  0  0  0  0  0  0
    0.7500   -1.2990    0.0000 C   0  0  0  0  0  0  0  0  0  0  0  0
   -0.7500   -1.2990    0.0000 C   0  0  0  0  0  0  0  0  0  0  0  0
   -1.5000    0.0000    0.0000 C   0  0  0  0  0  0  0  0  0  0  0  0
   -3.0000    0.0000    0.0000 C   0  0  0  0  0  0  0  0  0  0  0  0
   -3.7500    1.2990    0.0000 C   0  0  0  0  0  0  0  0  0  0  0  0
   -5.2500    1.2990    0.0000 C   0  0  0  0  0  0  0  0  0  0  0  0
   -6.7500    1.2990    0.0000 F   0  0  0  0  0  0  0  0  0  0  0  0
   -5.2500    2.7990    0.0000 F   0  0  0  0  0  0  0  0  0  0  0  0
   -5.2500   -0.2010    0.0000 F   0  0  0  0  0  0  0  0  0  0  0  0
   -3.0000    2.5981    0.0000 C   0  0  0  0  0  0  0  0  0  0  0  0
   -2.2500    3.8971    0.0000 F   0  0  0  0  0  0  0  0  0  0  0  0
   -4.2990    3.3481    0.0000 F   0  0  0  0  0  0  0  0  0  0  0  0
   -1.7010    1.8481    0.0000 F   0  0  0  0  0  0  0  0  0  0  0  0
   -0.7500    1.2990    0.0000 C   0  0  0  0  0  0  0  0  0  0  0  0
    0.7500    1.2990    0.0000 C   0  0  0  0  0  0  0  0  0  0  0  0
  1  2  2  0
  2  3  1  0
  2  4  1  0
  4  5  2  0
  5  6  1  0
  6  7  2  0
  7  8  1  0
  8  9  2  0
  9 10  1  0
 10 11  1  0
 10 12  1  0
 10 13  1  0
  9 14  1  0
 14 15  1  0
 14 16  1  0
 14 17  1  0
  7 18  1  0
 18 19  2  0
 19  4  1  0
M  CHG  2   2   1   3  -1
M  END
$$$$

     RDKit          2D

 13 13  0  0  0  0  0  0  0  0999 V2000
    6.8660   -5.1962    0.0000 F   0  0  0  0  0  0  0  0  0  0  0  0
    6.1160   -3.8971    0.0000 C   0  0  0  0  0  0  0  0  0  0  0  0
    4.8170   -4.6471    0.0000 F   0  0  0  0  0  0  0  0  0  0  0  0
    7.4151   -3.1471    0.0000 F   0  0  0  0  0  0  0  0  0  0  0  0
    5.3660   -2.5981    0.0000 C   0  0  0  0  0  0  0  0  0  0  0  0
    6.6651   -1.8481    0.0000 F   0  0  0  0  0  0  0  0  0  0  0  0
    4.0670   -3.3481    0.0000 F   0  0  0  0  0  0  0  0  0  0  0  0
    4.6160   -1.2990    0.0000 C   0  0  0  0  0  0  0  0  0  0  0  0
    3.1160   -1.2990    0.0000 O   0  0  0  0  0  0  0  0  0  0  0  0
    2.3660    0.0000    0.0000 C   0  0  0  0  0  0  0  0  0  0  0  0
    0.8660    0.0000    0.0000 C   0  0  0  0  0  0  0  0  0  0  0  0
   -0.4330    0.7500    0.0000 C   0  0  0  0  0  0  0  0  0  0  0  0
   -0.4330   -0.7500    0.0000 O   0  0  0  0  0  0  0  0  0  0  0  0
  1  2  1  0
  2  3  1  0
  2  4  1  0
  2  5  1  0
  5  6  1  0
  5  7  1  0
  5  8  1  0
  8  9  1  0
  9 10  1  0
 10 11  1  0
 11 12  1  0
 12 13  1  0
 13 11  1  0
M  END
$$$$

     RDKit          2D

 35 34  0  0  0  0  0  0  0  0999 V2000
    0.0000    0.0000    0.0000 C   0  0  0  0  0  0  0  0  0  0  0  0
    1.2990    0.7500    0.0000 C   0  0  0  0  0  0  0  0  0  0  0  0
    2.5981   -0.0000    0.0000 O   0  0  0  0  0  0  0  0  0  0  0  0
    3.8971    0.7500    0.0000 P   0  0  0  0  0  0  0  0  0  0  0  0
    4.6471   -0.5490    0.0000 O   0  0  0  0  0  0  0  0  0  0  0  0
    3.1471    2.0490    0.0000 C   0  0  0  0  0  0  0  0  0  0  0  0
    3.8971    3.3481    0.0000 C   0  0  0  0  0  0  0  0  0  0  0  0
    3.1471    4.6471    0.0000 C   0  0  0  0  0  0  0  0  0  0  0  0
    4.4462    5.3971    0.0000 F   0  0  0  0  0  0  0  0  0  0  0  0
    1.8481    3.8971    0.0000 F   0  0  0  0  0  0  0  0  0  0  0  0
    2.3971    5.9462    0.0000 C   0  0  0  0  0  0  0  0  0  0  0  0
    1.0981    5.1962    0.0000 F   0  0  0  0  0  0  0  0  0  0  0  0
    3.6962    6.6962    0.0000 F   0  0  0  0  0  0  0  0  0  0  0  0
    1.6471    7.2452    0.0000 C   0  0  0  0  0  0  0  0  0  0  0  0
    2.9462    7.9952    0.0000 F   0  0  0  0  0  0  0  0  0  0  0  0
    0.3481    6.4952    0.0000 F   0  0  0  0  0  0  0  0  0  0  0  0
    0.8971    8.5442    0.0000 C   0  0  0  0  0  0  0  0  0  0  0  0
   -0.4019    7.7942    0.0000 F   0  0  0  0  0  0  0  0  0  0  0  0
    2.1962    9.2942    0.0000 F   0  0  0  0  0  0  0  0  0  0  0  0
    0.1471    9.8433    0.0000 C   0  0  0  0  0  0  0  0  0  0  0  0
    1.4462   10.5933    0.0000 F   0  0  0  0  0  0  0  0  0  0  0  0
   -1.1519    9.0933    0.0000 F   0  0  0  0  0  0  0  0  0  0  0  0
   -0.6029   11.1423    0.0000 C   0  0  0  0  0  0  0  0  0  0  0  0
   -1.9019   10.3923    0.0000 F   0  0  0  0  0  0  0  0  0  0  0  0
    0.6962   11.8923    0.0000 F   0  0  0  0  0  0  0  0  0  0  0  0
   -1.3529   12.4413    0.0000 C   0  0  0  0  0  0  0  0  0  0  0  0
   -0.0538   13.1913    0.0000 F   0  0  0  0  0  0  0  0  0  0  0  0
   -2.6519   11.6913    0.0000 F   0  0  0  0  0  0  0  0  0  0  0  0
   -2.1029   13.7404    0.0000 C   0  0  0  0  0  0  0  0  0  0  0  0
   -2.8529   15.0394    0.0000 F   0  0  0  0  0  0  0  0  0  0  0  0
   -3.4019   12.9904    0.0000 F   0  0  0  0  0  0  0  0  0  0  0  0
   -0.8038   14.4904    0.0000 F   0  0  0  0  0  0  0  0  0  0  0  0
    5.1962    1.5000    0.0000 O   0  0  0  0  0  0  0  0  0  0  0  0
    5.1962    3.0000    0.0000 C   0  0  0  0  0  0  0  0  0  0  0  0
    6.4952    3.7500    0.0000 C   0  0  0  0  0  0  0  0  0  0  0  0
  1  2  1  0
  2  3  1  0
  3  4  1  0
  4  5  2  0
  4  6  1  0
  6  7  1  0
  7  8  1  0
  8  9  1  0
  8 10  1  0
  8 11  1  0
 11 12  1  0
 11 13  1  0
 11 14  1  0
 14 15  1  0
 14 16  1  0
 14 17  1  0
 17 18  1  0
 17 19  1  0
 17 20  1  0
 20 21  1  0
 20 22  1  0
 20 23  1  0
 23 24  1  0
 23 25  1  0
 23 26  1  0
 26 27  1  0
 26 28  1  0
 26 29  1  0
 29 30  1  0
 29 31  1  0
 29 32  1  0
  4 33  1  0
 33 34  1  0
 34 35  1  0
M  END
$$$$

     RDKit          2D

 11 10  0  0  0  0  0  0  0  0999 V2000
    0.0000    0.0000    0.0000 C   0  0  0  0  0  0  0  0  0  0  0  0
    1.2990    0.7500    0.0000 C   0  0  0  0  0  0  0  0  0  0  0  0
    2.5981   -0.0000    0.0000 N   0  0  0  0  0  0  0  0  0  0  0  0
    3.8971    0.7500    0.0000 C   0  0  0  0  0  0  0  0  0  0  0  0
    5.1962   -0.0000    0.0000 C   0  0  0  0  0  0  0  0  0  0  0  0
    2.5981   -1.5000    0.0000 C   0  0  0  0  0  0  0  0  0  0  0  0
    1.0981   -1.5000    0.0000 F   0  0  0  0  0  0  0  0  0  0  0  0
    4.0981   -1.5000    0.0000 F   0  0  0  0  0  0  0  0  0  0  0  0
    2.5981   -3.0000    0.0000 C   0  0  0  0  0  0  0  0  0  0  0  0
    1.2990   -3.7500    0.0000 F   0  0  0  0  0  0  0  0  0  0  0  0
    3.8971   -3.7500    0.0000 F   0  0  0  0  0  0  0  0  0  0  0  0
  1  2  1  0
  2  3  1  0
  3  4  1  0
  4  5  1  0
  3  6  1  0
  6  7  1  0
  6  8  1  0
  6  9  1  0
  9 10  1  0
  9 11  1  0
M  END
$$$$

     RDKit          2D

 17 17  0  0  0  0  0  0  0  0999 V2000
    3.0000    0.0000    0.0000 O   0  0  0  0  0  0  0  0  0  0  0  0
    1.5000    0.0000    0.0000 C   0  0  0  0  0  0  0  0  0  0  0  0
    0.7500   -1.2990    0.0000 C   0  0  0  0  0  0  0  0  0  0  0  0
   -0.7500   -1.2990    0.0000 C   0  0  0  0  0  0  0  0  0  0  0  0
   -1.5000    0.0000    0.0000 C   0  0  0  0  0  0  0  0  0  0  0  0
   -3.0000    0.0000    0.0000 C   0  0  0  0  0  0  0  0  0  0  0  0
   -3.0000    1.5000    0.0000 F   0  0  0  0  0  0  0  0  0  0  0  0
   -3.0000   -1.5000    0.0000 F   0  0  0  0  0  0  0  0  0  0  0  0
   -4.5000    0.0000    0.0000 C   0  0  0  0  0  0  0  0  0  0  0  0
   -4.5000   -1.5000    0.0000 F   0  0  0  0  0  0  0  0  0  0  0  0
   -4.5000    1.5000    0.0000 F   0  0  0  0  0  0  0  0  0  0  0  0
   -6.0000    0.0000    0.0000 C   0  0  0  0  0  0  0  0  0  0  0  0
   -7.5000    0.0000    0.0000 F   0  0  0  0  0  0  0  0  0  0  0  0
   -6.0000    1.5000    0.0000 F   0  0  0  0  0  0  0  0  0  0  0  0
   -6.0000   -1.5000    0.0000 F   0  0  0  0  0  0  0  0  0  0  0  0
   -0.7500    1.2990    0.0000 C   0  0  0  0  0  0  0  0  0  0  0  0
    0.7500    1.2990    0.0000 C   0  0  0  0  0  0  0  0  0  0  0  0
  1  2  1  0
  2  3  2  0
  3  4  1  0
  4  5  2  0
  5  6  1  0
  6  7  1  0
  6  8  1  0
  6  9  1  0
  9 10  1  0
  9 11  1  0
  9 12  1  0
 12 13  1  0
 12 14  1  0
 12 15  1  0
  5 16  1  0
 16 17  2  0
 17  2  1  0
M  END
$$$$

     RDKit          2D

 21 21  0  0  0  0  0  0  0  0999 V2000
    3.0000    0.0000    0.0000 N   0  0  0  0  0  0  0  0  0  0  0  0
    1.5000    0.0000    0.0000 C   0  0  0  0  0  0  0  0  0  0  0  0
    0.7500   -1.2990    0.0000 C   0  0  0  0  0  0  0  0  0  0  0  0
   -0.7500   -1.2990    0.0000 C   0  0  0  0  0  0  0  0  0  0  0  0
   -1.5000    0.0000    0.0000 C   0  0  0  0  0  0  0  0  0  0  0  0
   -3.0000    0.0000    0.0000 O   0  0  0  0  0  0  0  0  0  0  0  0
   -3.7500    1.2990    0.0000 C   0  0  0  0  0  0  0  0  0  0  0  0
   -2.4510    2.0490    0.0000 F   0  0  0  0  0  0  0  0  0  0  0  0
   -5.0490    0.5490    0.0000 F   0  0  0  0  0  0  0  0  0  0  0  0
   -4.5000    2.5981    0.0000 C   0  0  0  0  0  0  0  0  0  0  0  0
   -5.7990    1.8481    0.0000 F   0  0  0  0  0  0  0  0  0  0  0  0
   -3.2010    3.3481    0.0000 F   0  0  0  0  0  0  0  0  0  0  0  0
   -5.2500    3.8971    0.0000 C   0  0  0  0  0  0  0  0  0  0  0  0
   -6.5490    3.1471    0.0000 F   0  0  0  0  0  0  0  0  0  0  0  0
   -3.9510    4.6471    0.0000 F   0  0  0  0  0  0  0  0  0  0  0  0
   -6.0000    5.1962    0.0000 C   0  0  0  0  0  0  0  0  0  0  0  0
   -6.7500    6.4952    0.0000 F   0  0  0  0  0  0  0  0  0  0  0  0
   -4.7010    5.9462    0.0000 F   0  0  0  0  0  0  0  0  0  0  0  0
   -7.2990    4.4462    0.0000 F   0  0  0  0  0  0  0  0  0  0  0  0
   -0.7500    1.2990    0.0000 C   0  0  0  0  0  0  0  0  0  0  0  0
    0.7500    1.2990    0.0000 C   0  0  0  0  0  0  0  0  0  0  0  0
  1  2  1  0
  2  3  2  0
  3  4  1  0
  4  5  2  0
  5  6  1  0
  6  7  1  0
  7  8  1  0
  7  9  1  0
  7 10  1  0
 10 11  1  0
 10 12  1  0
 10 13  1  0
 13 14  1  0
 13 15  1  0
 13 16  1  0
 16 17  1  0
 16 18  1  0
 16 19  1  0
  5 20  1  0
 20 21  2  0
 21  2  1  0
M  END
$$$$

     RDKit          2D

 28 28  0  0  0  0  0  0  0  0999 V2000
    3.7500   -1.2990    0.0000 C   0  0  0  0  0  0  0  0  0  0  0  0
    3.0000    0.0000    0.0000 C   0  0  0  0  0  0  0  0  0  0  0  0
    1.5000    0.0000    0.0000 C   0  0  0  0  0  0  0  0  0  0  0  0
    0.7500   -1.2990    0.0000 C   0  0  0  0  0  0  0  0  0  0  0  0
   -0.7500   -1.2990    0.0000 C   0  0  0  0  0  0  0  0  0  0  0  0
   -1.5000    0.0000    0.0000 C   0  0  0  0  0  0  0  0  0  0  0  0
   -3.0000    0.0000    0.0000 O   0  0  0  0  0  0  0  0  0  0  0  0
   -3.7500    1.2990    0.0000 C   0  0  0  0  0  0  0  0  0  0  0  0
   -5.2500    1.2990    0.0000 C   0  0  0  0  0  0  0  0  0  0  0  0
   -5.2500    2.7990    0.0000 F   0  0  0  0  0  0  0  0  0  0  0  0
   -5.2500   -0.2010    0.0000 F   0  0  0  0  0  0  0  0  0  0  0  0
   -6.7500    1.2990    0.0000 C   0  0  0  0  0  0  0  0  0  0  0  0
   -6.7500   -0.2010    0.0000 F   0  0  0  0  0  0  0  0  0  0  0  0
   -6.7500    2.7990    0.0000 F   0  0  0  0  0  0  0  0  0  0  0  0
   -8.2500    1.2990    0.0000 C   0  0  0  0  0  0  0  0  0  0  0  0
   -8.2500    2.7990    0.0000 F   0  0  0  0  0  0  0  0  0  0  0  0
   -8.2500   -0.2010    0.0000 F   0  0  0  0  0  0  0  0  0  0  0  0
   -9.7500    1.2990    0.0000 C   0  0  0  0  0  0  0  0  0  0  0  0
   -9.7500    2.7990    0.0000 F   0  0  0  0  0  0  0  0  0  0  0  0
   -9.7500   -0.2010    0.0000 F   0  0  0  0  0  0  0  0  0  0  0  0
  -11.2500    1.2990    0.0000 C   0  0  0  0  0  0  0  0  0  0  0  0
  -11.2500   -0.2010    0.0000 F   0  0  0  0  0  0  0  0  0  0  0  0
  -11.2500    2.7990    0.0000 F   0  0  0  0  0  0  0  0  0  0  0  0
  -12.7500    1.2990    0.0000 C   0  0  0  0  0  0  0  0  0  0  0  0
  -13.5000    0.0000    0.0000 F   0  0  0  0  0  0  0  0  0  0  0  0
  -13.5000    2.5981    0.0000 F   0  0  0  0  0  0  0  0  0  0  0  0
   -0.7500    1.2990    0.0000 C   0  0  0  0  0  0  0  0  0  0  0  0
    0.7500    1.2990    0.0000 C   0  0  0  0  0  0  0  0  0  0  0  0
  1  2  2  0
  2  3  1  0
  3  4  2  0
  4  5  1  0
  5  6  2  0
  6  7  1  0
  7  8  1  0
  8  9  1  0
  9 10  1  0
  9 11  1  0
  9 12  1  0
 12 13  1  0
 12 14  1  0
 12 15  1  0
 15 16  1  0
 15 17  1  0
 15 18  1  0
 18 19  1  0
 18 20  1  0
 18 21  1  0
 21 22  1  0
 21 23  1  0
 21 24  1  0
 24 25  1  0
 24 26  1  0
  6 27  1  0
 27 28  2  0
 28  3  1  0
M  END
$$$$

     RDKit          2D

 16 16  0  0  0  0  0  0  0  0999 V2000
    3.7586    3.4472    0.0000 F   0  0  0  0  0  0  0  0  0  0  0  0
    2.7944    2.2981    0.0000 C   0  0  0  0  0  0  0  0  0  0  0  0
    1.6453    3.2623    0.0000 F   0  0  0  0  0  0  0  0  0  0  0  0
    3.9435    1.3340    0.0000 F   0  0  0  0  0  0  0  0  0  0  0  0
    1.8302    1.1491    0.0000 C   0  0  0  0  0  0  0  0  0  0  0  0
    2.9793    0.1849    0.0000 F   0  0  0  0  0  0  0  0  0  0  0  0
    0.6811    2.1132    0.0000 F   0  0  0  0  0  0  0  0  0  0  0  0
    0.8660    0.0000    0.0000 C   0  0  0  0  0  0  0  0  0  0  0  0
    1.8534   -0.9207    0.0000 F   0  0  0  0  0  0  0  0  0  0  0  0
   -0.4330    0.7500    0.0000 O   0  0  0  0  0  0  0  0  0  0  0  0
   -0.4330   -0.7500    0.0000 C   0  0  0  0  0  0  0  0  0  0  0  0
   -1.9102   -1.0105    0.0000 F   0  0  0  0  0  0  0  0  0  0  0  0
    0.0800   -2.1595    0.0000 C   0  0  0  0  0  0  0  0  0  0  0  0
    0.5930   -3.5691    0.0000 F   0  0  0  0  0  0  0  0  0  0  0  0
    1.3954   -1.8559    0.0000 F   0  0  0  0  0  0  0  0  0  0  0  0
   -1.3295   -2.6726    0.0000 F   0  0  0  0  0  0  0  0  0  0  0  0
  1  2  1  0
  2  3  1  0
  2  4  1  0
  2  5  1  0
  5  6  1  0
  5  7  1  0
  5  8  1  0
  8  9  1  0
  8 10  1  0
 10 11  1  0
 11 12  1  0
 11 13  1  0
 13 14  1  0
 13 15  1  0
 13 16  1  0
 11  8  1  0
M  END
$$$$

     RDKit          2D

 12 11  0  0  0  0  0  0  0  0999 V2000
   -0.0000   -1.5000    0.0000 O   0  0  0  0  0  0  0  0  0  0  0  0
    0.0000    0.0000    0.0000 C   0  0  0  0  0  0  0  0  0  0  0  0
    0.0000    1.5000    0.0000 N   0  0  0  0  0  0  0  0  0  0  0  0
    1.2990    2.2500    0.0000 C   0  0  0  0  0  0  0  0  0  0  0  0
    1.2990    3.7500    0.0000 C   0  0  0  0  0  0  0  0  0  0  0  0
    1.2990    5.2500    0.0000 F   0  0  0  0  0  0  0  0  0  0  0  0
    2.7990    3.7500    0.0000 F   0  0  0  0  0  0  0  0  0  0  0  0
   -0.2010    3.7500    0.0000 F   0  0  0  0  0  0  0  0  0  0  0  0
    2.5981    1.5000    0.0000 C   0  0  0  0  0  0  0  0  0  0  0  0
    3.8971    0.7500    0.0000 F   0  0  0  0  0  0  0  0  0  0  0  0
    3.3481    2.7990    0.0000 F   0  0  0  0  0  0  0  0  0  0  0  0
    1.8481    0.2010    0.0000 F   0  0  0  0  0  0  0  0  0  0  0  0
  1  2  2  0
  2  3  2  0
  3  4  1  0
  4  5  1  0
  5  6  1  0
  5  7  1  0
  5  8  1  0
  4  9  1  0
  9 10  1  0
  9 11  1  0
  9 12  1  0
M  END
$$$$

     RDKit          2D

 12 12  0  0  0  0  0  0  0  0999 V2000
    2.2814    3.7077    0.0000 F   0  0  0  0  0  0  0  0  0  0  0  0
    2.7944    2.2981    0.0000 C   0  0  0  0  0  0  0  0  0  0  0  0
    4.2716    2.0377    0.0000 F   0  0  0  0  0  0  0  0  0  0  0  0
    1.8302    1.1491    0.0000 C   0  0  0  0  0  0  0  0  0  0  0  0
    2.9793    0.1849    0.0000 F   0  0  0  0  0  0  0  0  0  0  0  0
    0.6811    2.1132    0.0000 F   0  0  0  0  0  0  0  0  0  0  0  0
    0.8660    0.0000    0.0000 C   0  0  0  0  0  0  0  0  0  0  0  0
    1.8302   -1.1491    0.0000 F   0  0  0  0  0  0  0  0  0  0  0  0
   -0.4330    0.7500    0.0000 O   0  0  0  0  0  0  0  0  0  0  0  0
   -0.4330   -0.7500    0.0000 C   0  0  0  0  0  0  0  0  0  0  0  0
    0.0800   -2.1595    0.0000 F   0  0  0  0  0  0  0  0  0  0  0  0
   -1.9102   -1.0105    0.0000 F   0  0  0  0  0  0  0  0  0  0  0  0
  1  2  1  0
  2  3  1  0
  2  4  1  0
  4  5  1  0
  4  6  1  0
  4  7  1  0
  7  8  1  0
  7  9  1  0
  9 10  1  0
 10 11  1  0
 10 12  1  0
 10  7  1  0
M  END
$$$$

     RDKit          2D

 13 12  0  0  0  0  0  0  0  0999 V2000
   -1.2990    0.7500    0.0000 O   0  0  0  0  0  0  0  0  0  0  0  0
    0.0000    0.0000    0.0000 C   0  0  0  0  0  0  0  0  0  0  0  0
   -0.0000   -1.5000    0.0000 F   0  0  0  0  0  0  0  0  0  0  0  0
    1.2990    0.7500    0.0000 C   0  0  0  0  0  0  0  0  0  0  0  0
    2.0490   -0.5490    0.0000 F   0  0  0  0  0  0  0  0  0  0  0  0
    0.5490    2.0490    0.0000 F   0  0  0  0  0  0  0  0  0  0  0  0
    2.5981    1.5000    0.0000 C   0  0  0  0  0  0  0  0  0  0  0  0
    1.8481    2.7990    0.0000 F   0  0  0  0  0  0  0  0  0  0  0  0
    3.3481    0.2010    0.0000 F   0  0  0  0  0  0  0  0  0  0  0  0
    3.8971    2.2500    0.0000 C   0  0  0  0  0  0  0  0  0  0  0  0
    5.1962    3.0000    0.0000 F   0  0  0  0  0  0  0  0  0  0  0  0
    4.6471    0.9510    0.0000 F   0  0  0  0  0  0  0  0  0  0  0  0
    3.1471    3.5490    0.0000 I   0  0  0  0  0  0  0  0  0  0  0  0
  1  2  2  0
  2  3  1  0
  2  4  1  0
  4  5  1  0
  4  6  1  0
  4  7  1  0
  7  8  1  0
  7  9  1  0
  7 10  1  0
 10 11  1  0
 10 12  1  0
 10 13  1  0
M  END
$$$$

     RDKit          2D

 10 10  0  0  0  0  0  0  0  0999 V2000
    3.1160    1.2990    0.0000 O   0  0  0  0  0  0  0  0  0  0  0  0
    2.3660    0.0000    0.0000 C   0  0  0  0  0  0  0  0  0  0  0  0
    3.1160   -1.2990    0.0000 O   0  0  0  0  0  0  0  0  0  0  0  0
    0.8660    0.0000    0.0000 C   0  0  0  0  0  0  0  0  0  0  0  0
   -0.4330    0.7500    0.0000 C   0  0  0  0  0  0  0  0  0  0  0  0
   -1.9102    1.0105    0.0000 F   0  0  0  0  0  0  0  0  0  0  0  0
    0.0800    2.1595    0.0000 F   0  0  0  0  0  0  0  0  0  0  0  0
   -0.4330   -0.7500    0.0000 C   0  0  0  0  0  0  0  0  0  0  0  0
    0.0800   -2.1595    0.0000 F   0  0  0  0  0  0  0  0  0  0  0  0
   -1.9102   -1.0105    0.0000 F   0  0  0  0  0  0  0  0  0  0  0  0
  1  2  2  0
  2  3  1  0
  2  4  1  0
  4  5  1  0
  5  6  1  0
  5  7  1  0
  5  8  1  0
  8  9  1  0
  8 10  1  0
  8  4  1  0
M  END
$$$$

     RDKit          2D

 19 18  0  0  0  0  0  0  0  0999 V2000
   -2.5981    3.0000    0.0000 N   0  0  0  0  0  0  0  0  0  0  0  0
   -1.2990    2.2500    0.0000 C   0  0  0  0  0  0  0  0  0  0  0  0
   -0.0000    1.5000    0.0000 C   0  0  0  0  0  0  0  0  0  0  0  0
    1.2990    2.2500    0.0000 S   0  0  0  0  0  0  0  0  0  0  0  0
    1.6105    1.5162    0.0000 O   0  0  0  0  0  0  0  0  0  0  0  0
    0.5490    3.5490    0.0000 O   0  0  0  0  0  0  0  0  0  0  0  0
    2.5981    3.0000    0.0000 C   0  0  0  0  0  0  0  0  0  0  0  0
    1.8481    4.2990    0.0000 F   0  0  0  0  0  0  0  0  0  0  0  0
    3.8971    3.7500    0.0000 F   0  0  0  0  0  0  0  0  0  0  0  0
    3.3481    1.7010    0.0000 C   0  0  0  0  0  0  0  0  0  0  0  0
    2.6407    1.1679    0.0000 F   0  0  0  0  0  0  0  0  0  0  0  0
    4.6471    2.4510    0.0000 F   0  0  0  0  0  0  0  0  0  0  0  0
    4.0981    0.4019    0.0000 C   0  0  0  0  0  0  0  0  0  0  0  0
    2.7990   -0.3481    0.0000 F   0  0  0  0  0  0  0  0  0  0  0  0
    5.3971    1.1519    0.0000 F   0  0  0  0  0  0  0  0  0  0  0  0
    4.8481   -0.8971    0.0000 C   0  0  0  0  0  0  0  0  0  0  0  0
    5.5981   -2.1962    0.0000 F   0  0  0  0  0  0  0  0  0  0  0  0
    6.1471   -0.1471    0.0000 F   0  0  0  0  0  0  0  0  0  0  0  0
    3.5490   -1.6471    0.0000 F   0  0  0  0  0  0  0  0  0  0  0  0
  1  2  3  0
  2  3  1  0
  3  4  1  0
  4  5  2  0
  4  6  2  0
  4  7  1  0
  7  8  1  0
  7  9  1  0
  7 10  1  0
 10 11  1  0
 10 12  1  0
 10 13  1  0
 13 14  1  0
 13 15  1  0
 13 16  1  0
 16 17  1  0
 16 18  1  0
 16 19  1  0
M  END
$$$$

     RDKit          2D

 15 14  0  0  0  0  0  0  0  0999 V2000
    5.1962    4.5000    0.0000 F   0  0  0  0  0  0  0  0  0  0  0  0
    5.1962    3.0000    0.0000 C   0  0  0  0  0  0  0  0  0  0  0  0
    6.4952    2.2500    0.0000 F   0  0  0  0  0  0  0  0  0  0  0  0
    3.8971    2.2500    0.0000 C   0  0  0  0  0  0  0  0  0  0  0  0
    3.1471    3.5490    0.0000 F   0  0  0  0  0  0  0  0  0  0  0  0
    4.6471    0.9510    0.0000 F   0  0  0  0  0  0  0  0  0  0  0  0
    2.5981    1.5000    0.0000 C   0  0  0  0  0  0  0  0  0  0  0  0
    1.8481    2.7990    0.0000 F   0  0  0  0  0  0  0  0  0  0  0  0
    3.3481    0.2010    0.0000 F   0  0  0  0  0  0  0  0  0  0  0  0
    1.2990    0.7500    0.0000 C   0  0  0  0  0  0  0  0  0  0  0  0
    2.0490   -0.5490    0.0000 F   0  0  0  0  0  0  0  0  0  0  0  0
    0.5490    2.0490    0.0000 F   0  0  0  0  0  0  0  0  0  0  0  0
    0.0000    0.0000    0.0000 C   0  0  0  0  0  0  0  0  0  0  0  0
   -1.2990    0.7500    0.0000 O   0  0  0  0  0  0  0  0  0  0  0  0
   -2.5981    0.0000    0.0000 Cl  0  0  0  0  0  0  0  0  0  0  0  0
  1  2  1  0
  2  3  1  0
  2  4  1  0
  4  5  1  0
  4  6  1  0
  4  7  1  0
  7  8  1  0
  7  9  1  0
  7 10  1  0
 10 11  1  0
 10 12  1  0
 10 13  1  0
 13 14  1  0
 14 15  1  0
M  END
$$$$

     RDKit          2D

 16 15  0  0  0  0  0  0  0  0999 V2000
   -2.5981    3.0000    0.0000 O   0  0  0  0  0  0  0  0  0  0  0  0
   -1.2990    2.2500    0.0000 C   0  0  0  0  0  0  0  0  0  0  0  0
    0.0000    1.5000    0.0000 C   0  0  0  0  0  0  0  0  0  0  0  0
    1.2990    2.2500    0.0000 C   0  0  0  0  0  0  0  0  0  0  0  0
    2.5981    1.5000    0.0000 O   0  0  0  0  0  0  0  0  0  0  0  0
    1.2990    3.7500    0.0000 C   0  0  0  0  0  0  0  0  0  0  0  0
    2.7990    3.7500    0.0000 F   0  0  0  0  0  0  0  0  0  0  0  0
   -0.2010    3.7500    0.0000 F   0  0  0  0  0  0  0  0  0  0  0  0
    1.2990    5.2500    0.0000 C   0  0  0  0  0  0  0  0  0  0  0  0
    1.2990    6.7500    0.0000 F   0  0  0  0  0  0  0  0  0  0  0  0
    2.7990    5.2500    0.0000 F   0  0  0  0  0  0  0  0  0  0  0  0
   -0.2010    5.2500    0.0000 F   0  0  0  0  0  0  0  0  0  0  0  0
   -0.0000   -0.0000    0.0000 C   0  0  0  0  0  0  0  0  0  0  0  0
   -0.0000   -1.5000    0.0000 F   0  0  0  0  0  0  0  0  0  0  0  0
    1.5000   -0.0000    0.0000 F   0  0  0  0  0  0  0  0  0  0  0  0
   -1.5000    0.0000    0.0000 F   0  0  0  0  0  0  0  0  0  0  0  0
  1  2  2  0
  2  3  2  0
  3  4  1  0
  4  5  2  0
  4  6  1  0
  6  7  1  0
  6  8  1  0
  6  9  1  0
  9 10  1  0
  9 11  1  0
  9 12  1  0
  3 13  1  0
 13 14  1  0
 13 15  1  0
 13 16  1  0
M  END
$$$$

     RDKit          2D

 20 20  0  0  0  0  0  0  0  0999 V2000
    3.7500    1.2990    0.0000 O   0  0  0  0  0  0  0  0  0  0  0  0
    3.0000    0.0000    0.0000 C   0  0  0  0  0  0  0  0  0  0  0  0
    1.5000    0.0000    0.0000 C   0  0  0  0  0  0  0  0  0  0  0  0
    0.7500   -1.2990    0.0000 C   0  0  0  0  0  0  0  0  0  0  0  0
   -0.7500   -1.2990    0.0000 C   0  0  0  0  0  0  0  0  0  0  0  0
   -1.5000   -2.5981    0.0000 Br  0  0  0  0  0  0  0  0  0  0  0  0
   -1.5000    0.0000    0.0000 C   0  0  0  0  0  0  0  0  0  0  0  0
   -0.7500    1.2990    0.0000 C   0  0  0  0  0  0  0  0  0  0  0  0
   -1.5000    2.5981    0.0000 Br  0  0  0  0  0  0  0  0  0  0  0  0
    0.7500    1.2990    0.0000 C   0  0  0  0  0  0  0  0  0  0  0  0
    3.7500   -1.2990    0.0000 C   0  0  0  0  0  0  0  0  0  0  0  0
    5.0490   -0.5490    0.0000 F   0  0  0  0  0  0  0  0  0  0  0  0
    2.4510   -2.0490    0.0000 F   0  0  0  0  0  0  0  0  0  0  0  0
    4.5000   -2.5981    0.0000 C   0  0  0  0  0  0  0  0  0  0  0  0
    3.2010   -3.3481    0.0000 F   0  0  0  0  0  0  0  0  0  0  0  0
    5.7990   -1.8481    0.0000 F   0  0  0  0  0  0  0  0  0  0  0  0
    5.2500   -3.8971    0.0000 C   0  0  0  0  0  0  0  0  0  0  0  0
    6.0000   -5.1962    0.0000 F   0  0  0  0  0  0  0  0  0  0  0  0
    6.5490   -3.1471    0.0000 F   0  0  0  0  0  0  0  0  0  0  0  0
    3.9510   -4.6471    0.0000 F   0  0  0  0  0  0  0  0  0  0  0  0
  1  2  2  0
  2  3  1  0
  3  4  2  0
  4  5  1  0
  5  6  1  0
  5  7  2  0
  7  8  1  0
  8  9  1  0
  8 10  2  0
  2 11  1  0
 11 12  1  0
 11 13  1  0
 11 14  1  0
 14 15  1  0
 14 16  1  0
 14 17  1  0
 17 18  1  0
 17 19  1  0
 17 20  1  0
 10  3  1  0
M  END
$$$$

     RDKit          2D

 13 13  0  0  0  0  0  0  0  0999 V2000
    3.0000    0.0000    0.0000 F   0  0  0  0  0  0  0  0  0  0  0  0
    1.5000    0.0000    0.0000 C   0  0  0  0  0  0  0  0  0  0  0  0
    0.7500   -1.2990    0.0000 N   0  0  0  0  0  0  0  0  0  0  0  0
   -0.7500   -1.2990    0.0000 C   0  0  0  0  0  0  0  0  0  0  0  0
   -0.4895   -2.7762    0.0000 F   0  0  0  0  0  0  0  0  0  0  0  0
   -2.1595   -1.8121    0.0000 F   0  0  0  0  0  0  0  0  0  0  0  0
   -1.5000    0.0000    0.0000 C   0  0  0  0  0  0  0  0  0  0  0  0
   -2.6491   -0.9642    0.0000 F   0  0  0  0  0  0  0  0  0  0  0  0
   -2.6491    0.9642    0.0000 F   0  0  0  0  0  0  0  0  0  0  0  0
   -0.7500    1.2990    0.0000 C   0  0  0  0  0  0  0  0  0  0  0  0
   -1.5000    2.5981    0.0000 F   0  0  0  0  0  0  0  0  0  0  0  0
    0.7500    1.2990    0.0000 C   0  0  0  0  0  0  0  0  0  0  0  0
    1.5000    2.5981    0.0000 F   0  0  0  0  0  0  0  0  0  0  0  0
  1  2  1  0
  2  3  2  0
  3  4  1  0
  4  5  1  0
  4  6  1  0
  4  7  1  0
  7  8  1  0
  7  9  1  0
  7 10  1  0
 10 11  1  0
 10 12  2  0
 12 13  1  0
 12  2  1  0
M  END
$$$$

     RDKit          2D

 23 22  0  0  0  0  0  0  0  0999 V2000
   -3.8971    0.7500    0.0000 O   0  0  0  0  0  0  0  0  0  0  0  0
   -2.5981    0.0000    0.0000 S   0  0  0  0  0  0  0  0  0  0  0  0
   -2.5981   -1.5000    0.0000 Cl  0  0  0  0  0  0  0  0  0  0  0  0
   -1.2990    0.7500    0.0000 O   0  0  0  0  0  0  0  0  0  0  0  0
    0.0000    0.0000    0.0000 C   0  0  0  0  0  0  0  0  0  0  0  0
    1.2990    0.7500    0.0000 C   0  0  0  0  0  0  0  0  0  0  0  0
    2.0490   -0.5490    0.0000 F   0  0  0  0  0  0  0  0  0  0  0  0
    0.5490    2.0490    0.0000 F   0  0  0  0  0  0  0  0  0  0  0  0
    2.5981    1.5000    0.0000 C   0  0  0  0  0  0  0  0  0  0  0  0
    1.8481    2.7990    0.0000 F   0  0  0  0  0  0  0  0  0  0  0  0
    3.3481    0.2010    0.0000 F   0  0  0  0  0  0  0  0  0  0  0  0
    3.8971    2.2500    0.0000 C   0  0  0  0  0  0  0  0  0  0  0  0
    4.6471    0.9510    0.0000 F   0  0  0  0  0  0  0  0  0  0  0  0
    3.1471    3.5490    0.0000 F   0  0  0  0  0  0  0  0  0  0  0  0
    5.1962    3.0000    0.0000 C   0  0  0  0  0  0  0  0  0  0  0  0
    5.9462    1.7010    0.0000 F   0  0  0  0  0  0  0  0  0  0  0  0
    4.4462    4.2990    0.0000 F   0  0  0  0  0  0  0  0  0  0  0  0
    6.4952    3.7500    0.0000 C   0  0  0  0  0  0  0  0  0  0  0  0
    5.7452    5.0490    0.0000 F   0  0  0  0  0  0  0  0  0  0  0  0
    7.2452    2.4510    0.0000 F   0  0  0  0  0  0  0  0  0  0  0  0
    7.7942    4.5000    0.0000 C   0  0  0  0  0  0  0  0  0  0  0  0
    7.7942    6.0000    0.0000 F   0  0  0  0  0  0  0  0  0  0  0  0
    9.0933    3.7500    0.0000 F   0  0  0  0  0  0  0  0  0  0  0  0
  1  2  2  0
  2  3  1  0
  2  4  1  0
  4  5  1  0
  5  6  1  0
  6  7  1  0
  6  8  1  0
  6  9  1  0
  9 10  1  0
  9 11  1  0
  9 12  1  0
 12 13  1  0
 12 14  1  0
 12 15  1  0
 15 16  1  0
 15 17  1  0
 15 18  1  0
 18 19  1  0
 18 20  1  0
 18 21  1  0
 21 22  1  0
 21 23  1  0
M  END
$$$$

     RDKit          2D

 15 14  0  0  0  0  0  0  0  0999 V2000
    0.0000    0.0000    0.0000 C   0  0  0  0  0  0  0  0  0  0  0  0
    1.2990    0.7500    0.0000 C   0  0  0  0  0  0  0  0  0  0  0  0
    2.5981   -0.0000    0.0000 C   0  0  0  0  0  0  0  0  0  0  0  0
    1.2990    2.2500    0.0000 C   0  0  0  0  0  0  0  0  0  0  0  0
   -0.0817    2.8361    0.0000 O   0  0  0  0  0  0  0  0  0  0  0  0
    2.5981    3.0000    0.0000 C   0  0  0  0  0  0  0  0  0  0  0  0
    3.3481    1.7010    0.0000 F   0  0  0  0  0  0  0  0  0  0  0  0
    3.8971    3.7500    0.0000 C   0  0  0  0  0  0  0  0  0  0  0  0
    5.1962    4.5000    0.0000 F   0  0  0  0  0  0  0  0  0  0  0  0
    4.6471    2.4510    0.0000 F   0  0  0  0  0  0  0  0  0  0  0  0
    3.5511    4.5653    0.0000 F   0  0  0  0  0  0  0  0  0  0  0  0
    1.8481    4.2990    0.0000 C   0  0  0  0  0  0  0  0  0  0  0  0
    1.0981    5.5981    0.0000 F   0  0  0  0  0  0  0  0  0  0  0  0
    2.5554    4.8321    0.0000 F   0  0  0  0  0  0  0  0  0  0  0  0
    0.4673    3.7130    0.0000 F   0  0  0  0  0  0  0  0  0  0  0  0
  1  2  1  0
  2  3  1  0
  2  4  1  0
  4  5  2  0
  4  6  1  0
  6  7  1  0
  6  8  1  0
  8  9  1  0
  8 10  1  0
  8 11  1  0
  6 12  1  0
 12 13  1  0
 12 14  1  0
 12 15  1  0
M  END
$$$$

     RDKit          2D

 19 18  0  0  0  0  0  0  0  0999 V2000
    1.1162    2.2388    0.0000 C   0  0  0  0  0  0  0  0  0  0  0  0
    1.2990    0.7500    0.0000 O   0  0  0  0  0  0  0  0  0  0  0  0
    2.5981   -0.0000    0.0000 C   0  0  0  0  0  0  0  0  0  0  0  0
    3.8971   -0.7500    0.0000 F   0  0  0  0  0  0  0  0  0  0  0  0
    1.8481   -1.2990    0.0000 C   0  0  0  0  0  0  0  0  0  0  0  0
    0.3481   -1.2990    0.0000 C   0  0  0  0  0  0  0  0  0  0  0  0
   -0.4019   -0.0000    0.0000 F   0  0  0  0  0  0  0  0  0  0  0  0
   -0.4019   -2.5981    0.0000 F   0  0  0  0  0  0  0  0  0  0  0  0
    2.5981   -2.5981    0.0000 C   0  0  0  0  0  0  0  0  0  0  0  0
    3.3481   -3.8971    0.0000 F   0  0  0  0  0  0  0  0  0  0  0  0
    1.2990   -3.3481    0.0000 F   0  0  0  0  0  0  0  0  0  0  0  0
    3.8971   -1.8481    0.0000 F   0  0  0  0  0  0  0  0  0  0  0  0
    3.3481    1.2990    0.0000 C   0  0  0  0  0  0  0  0  0  0  0  0
    4.6471    0.5490    0.0000 F   0  0  0  0  0  0  0  0  0  0  0  0
    2.1501    2.2018    0.0000 F   0  0  0  0  0  0  0  0  0  0  0  0
    4.0981    2.5981    0.0000 C   0  0  0  0  0  0  0  0  0  0  0  0
    4.8481    3.8971    0.0000 F   0  0  0  0  0  0  0  0  0  0  0  0
    2.7990    3.3481    0.0000 F   0  0  0  0  0  0  0  0  0  0  0  0
    5.3971    1.8481    0.0000 F   0  0  0  0  0  0  0  0  0  0  0  0
  1  2  1  0
  2  3  1  0
  3  4  1  0
  3  5  1  0
  5  6  2  0
  6  7  1  0
  6  8  1  0
  5  9  1  0
  9 10  1  0
  9 11  1  0
  9 12  1  0
  3 13  1  0
 13 14  1  0
 13 15  1  0
 13 16  1  0
 16 17  1  0
 16 18  1  0
 16 19  1  0
M  END
$$$$

     RDKit          2D

 15 15  0  0  0  0  0  0  0  0999 V2000
    3.7500   -1.2990    0.0000 C   0  0  0  0  0  0  0  0  0  0  0  0
    3.0000    0.0000    0.0000 N   0  0  0  0  0  0  0  0  0  0  0  0
    3.7500    1.2990    0.0000 C   0  0  0  0  0  0  0  0  0  0  0  0
    5.2500    1.2990    0.0000 C   0  0  0  0  0  0  0  0  0  0  0  0
    5.2500    2.7990    0.0000 F   0  0  0  0  0  0  0  0  0  0  0  0
    5.2500   -0.2010    0.0000 F   0  0  0  0  0  0  0  0  0  0  0  0
    6.7500    1.2990    0.0000 C   0  0  0  0  0  0  0  0  0  0  0  0
    7.5000    0.0000    0.0000 F   0  0  0  0  0  0  0  0  0  0  0  0
    7.5000    2.5981    0.0000 F   0  0  0  0  0  0  0  0  0  0  0  0
    1.5000    0.0000    0.0000 C   0  0  0  0  0  0  0  0  0  0  0  0
    0.7500   -1.2990    0.0000 C   0  0  0  0  0  0  0  0  0  0  0  0
   -0.7500   -1.2990    0.0000 C   0  0  0  0  0  0  0  0  0  0  0  0
   -1.5000    0.0000    0.0000 C   0  0  0  0  0  0  0  0  0  0  0  0
   -0.7500    1.2990    0.0000 C   0  0  0  0  0  0  0  0  0  0  0  0
    0.7500    1.2990    0.0000 C   0  0  0  0  0  0  0  0  0  0  0  0
  1  2  1  0
  2  3  1  0
  3  4  1  0
  4  5  1  0
  4  6  1  0
  4  7  1  0
  7  8  1  0
  7  9  1  0
  2 10  1  0
 10 11  2  0
 11 12  1  0
 12 13  2  0
 13 14  1  0
 14 15  2  0
 15 10  1  0
M  END
$$$$

     RDKit          2D

 35 35  0  0  0  0  0  0  0  0999 V2000
    5.2500   -1.2990    0.0000 C   0  0  0  0  0  0  0  0  0  0  0  0
    3.7500   -1.2990    0.0000 O   0  0  0  0  0  0  0  0  0  0  0  0
    3.0000    0.0000    0.0000 C   0  0  0  0  0  0  0  0  0  0  0  0
    3.7500    1.2990    0.0000 O   0  0  0  0  0  0  0  0  0  0  0  0
    1.5000    0.0000    0.0000 C   0  0  0  0  0  0  0  0  0  0  0  0
    0.7500   -1.2990    0.0000 C   0  0  0  0  0  0  0  0  0  0  0  0
   -0.7500   -1.2990    0.0000 C   0  0  0  0  0  0  0  0  0  0  0  0
   -1.5000    0.0000    0.0000 C   0  0  0  0  0  0  0  0  0  0  0  0
   -0.7500    1.2990    0.0000 C   0  0  0  0  0  0  0  0  0  0  0  0
   -1.5000    2.5981    0.0000 C   0  0  0  0  0  0  0  0  0  0  0  0
   -0.2010    3.3481    0.0000 F   0  0  0  0  0  0  0  0  0  0  0  0
   -2.7990    1.8481    0.0000 F   0  0  0  0  0  0  0  0  0  0  0  0
   -2.2500    3.8971    0.0000 C   0  0  0  0  0  0  0  0  0  0  0  0
   -3.5490    3.1471    0.0000 F   0  0  0  0  0  0  0  0  0  0  0  0
   -0.9510    4.6471    0.0000 F   0  0  0  0  0  0  0  0  0  0  0  0
   -3.0000    5.1962    0.0000 C   0  0  0  0  0  0  0  0  0  0  0  0
   -1.7010    5.9462    0.0000 F   0  0  0  0  0  0  0  0  0  0  0  0
   -4.2990    4.4462    0.0000 F   0  0  0  0  0  0  0  0  0  0  0  0
   -3.7500    6.4952    0.0000 C   0  0  0  0  0  0  0  0  0  0  0  0
   -5.0490    5.7452    0.0000 F   0  0  0  0  0  0  0  0  0  0  0  0
   -2.4510    7.2452    0.0000 F   0  0  0  0  0  0  0  0  0  0  0  0
   -4.5000    7.7942    0.0000 C   0  0  0  0  0  0  0  0  0  0  0  0
   -3.2010    8.5442    0.0000 F   0  0  0  0  0  0  0  0  0  0  0  0
   -5.7990    7.0442    0.0000 F   0  0  0  0  0  0  0  0  0  0  0  0
   -5.2500    9.0933    0.0000 C   0  0  0  0  0  0  0  0  0  0  0  0
   -6.5490    8.3433    0.0000 F   0  0  0  0  0  0  0  0  0  0  0  0
   -3.9510    9.8433    0.0000 F   0  0  0  0  0  0  0  0  0  0  0  0
   -6.0000   10.3923    0.0000 C   0  0  0  0  0  0  0  0  0  0  0  0
   -4.7010   11.1423    0.0000 F   0  0  0  0  0  0  0  0  0  0  0  0
   -7.2990    9.6423    0.0000 F   0  0  0  0  0  0  0  0  0  0  0  0
   -6.7500   11.6913    0.0000 C   0  0  0  0  0  0  0  0  0  0  0  0
   -7.5000   12.9904    0.0000 F   0  0  0  0  0  0  0  0  0  0  0  0
   -8.0490   10.9413    0.0000 F   0  0  0  0  0  0  0  0  0  0  0  0
   -5.4510   12.4413    0.0000 F   0  0  0  0  0  0  0  0  0  0  0  0
    0.7500    1.2990    0.0000 C   0  0  0  0  0  0  0  0  0  0  0  0
  1  2  1  0
  2  3  1  0
  3  4  2  0
  3  5  1  0
  5  6  2  0
  6  7  1  0
  7  8  2  0
  8  9  1  0
  9 10  1  0
 10 11  1  0
 10 12  1  0
 10 13  1  0
 13 14  1  0
 13 15  1  0
 13 16  1  0
 16 17  1  0
 16 18  1  0
 16 19  1  0
 19 20  1  0
 19 21  1  0
 19 22  1  0
 22 23  1  0
 22 24  1  0
 22 25  1  0
 25 26  1  0
 25 27  1  0
 25 28  1  0
 28 29  1  0
 28 30  1  0
 28 31  1  0
 31 32  1  0
 31 33  1  0
 31 34  1  0
  9 35  2  0
 35  5  1  0
M  END
$$$$

     RDKit          2D

 28 29  0  0  0  0  0  0  0  0999 V2000
    3.0000   -2.5981    0.0000 O   0  0  0  0  0  0  0  0  0  0  0  0
    1.5000   -2.5981    0.0000 C   0  0  0  0  0  0  0  0  0  0  0  0
    0.7500   -1.2990    0.0000 C   0  0  0  0  0  0  0  0  0  0  0  0
    1.5000    0.0000    0.0000 C   0  0  0  0  0  0  0  0  0  0  0  0
    0.7500    1.2990    0.0000 C   0  0  0  0  0  0  0  0  0  0  0  0
   -0.7500    1.2990    0.0000 C   0  0  0  0  0  0  0  0  0  0  0  0
   -1.5000    0.0000    0.0000 C   0  0  0  0  0  0  0  0  0  0  0  0
   -0.7500   -1.2990    0.0000 C   0  0  0  0  0  0  0  0  0  0  0  0
    0.7500   -3.8971    0.0000 C   0  0  0  0  0  0  0  0  0  0  0  0
    2.0490   -4.6471    0.0000 F   0  0  0  0  0  0  0  0  0  0  0  0
   -0.5490   -3.1471    0.0000 F   0  0  0  0  0  0  0  0  0  0  0  0
   -0.0000   -5.1962    0.0000 C   0  0  0  0  0  0  0  0  0  0  0  0
   -1.2990   -4.4462    0.0000 F   0  0  0  0  0  0  0  0  0  0  0  0
    1.2990   -5.9462    0.0000 F   0  0  0  0  0  0  0  0  0  0  0  0
   -0.7500   -6.4952    0.0000 C   0  0  0  0  0  0  0  0  0  0  0  0
   -2.0490   -5.7452    0.0000 F   0  0  0  0  0  0  0  0  0  0  0  0
    0.5490   -7.2452    0.0000 F   0  0  0  0  0  0  0  0  0  0  0  0
   -1.5000   -7.7942    0.0000 C   0  0  0  0  0  0  0  0  0  0  0  0
   -0.2010   -8.5442    0.0000 F   0  0  0  0  0  0  0  0  0  0  0  0
   -2.7990   -7.0442    0.0000 F   0  0  0  0  0  0  0  0  0  0  0  0
   -2.2500   -9.0933    0.0000 C   0  0  0  0  0  0  0  0  0  0  0  0
   -3.7500   -9.0933    0.0000 O   0  0  0  0  0  0  0  0  0  0  0  0
   -1.5000  -10.3923    0.0000 C   0  0  0  0  0  0  0  0  0  0  0  0
   -2.2500  -11.6913    0.0000 C   0  0  0  0  0  0  0  0  0  0  0  0
   -1.5000  -12.9904    0.0000 C   0  0  0  0  0  0  0  0  0  0  0  0
   -0.0000  -12.9904    0.0000 C   0  0  0  0  0  0  0  0  0  0  0  0
    0.7500  -11.6913    0.0000 C   0  0  0  0  0  0  0  0  0  0  0  0
   -0.0000  -10.3923    0.0000 C   0  0  0  0  0  0  0  0  0  0  0  0
  1  2  2  0
  2  3  1  0
  3  4  2  0
  4  5  1  0
  5  6  2  0
  6  7  1  0
  7  8  2  0
  2  9  1  0
  9 10  1  0
  9 11  1  0
  9 12  1  0
 12 13  1  0
 12 14  1  0
 12 15  1  0
 15 16  1  0
 15 17  1  0
 15 18  1  0
 18 19  1  0
 18 20  1  0
 18 21  1  0
 21 22  2  0
 21 23  1  0
 23 24  2  0
 24 25  1  0
 25 26  2  0
 26 27  1  0
 27 28  2  0
  8  3  1  0
 28 23  1  0
M  END
$$$$

     RDKit          2D

 18 18  0  0  0  0  0  0  0  0999 V2000
    3.0000    0.0000    0.0000 F   0  0  0  0  0  0  0  0  0  0  0  0
    1.5000    0.0000    0.0000 C   0  0  0  0  0  0  0  0  0  0  0  0
    0.7500   -1.2990    0.0000 C   0  0  0  0  0  0  0  0  0  0  0  0
    1.5000   -2.5981    0.0000 C   0  0  0  0  0  0  0  0  0  0  0  0
    2.2500   -3.8971    0.0000 F   0  0  0  0  0  0  0  0  0  0  0  0
    0.3021   -3.5008    0.0000 F   0  0  0  0  0  0  0  0  0  0  0  0
    2.7990   -1.8481    0.0000 F   0  0  0  0  0  0  0  0  0  0  0  0
   -0.7500   -1.2990    0.0000 C   0  0  0  0  0  0  0  0  0  0  0  0
   -0.6715   -2.7970    0.0000 F   0  0  0  0  0  0  0  0  0  0  0  0
   -2.1595   -1.8121    0.0000 F   0  0  0  0  0  0  0  0  0  0  0  0
   -1.5000    0.0000    0.0000 C   0  0  0  0  0  0  0  0  0  0  0  0
   -2.6491   -0.9642    0.0000 F   0  0  0  0  0  0  0  0  0  0  0  0
   -2.6491    0.9642    0.0000 F   0  0  0  0  0  0  0  0  0  0  0  0
   -0.7500    1.2990    0.0000 C   0  0  0  0  0  0  0  0  0  0  0  0
   -1.5000    2.5981    0.0000 Cl  0  0  0  0  0  0  0  0  0  0  0  0
    0.7500    1.2990    0.0000 C   0  0  0  0  0  0  0  0  0  0  0  0
    0.4895    2.7762    0.0000 F   0  0  0  0  0  0  0  0  0  0  0  0
    2.1595    1.8121    0.0000 F   0  0  0  0  0  0  0  0  0  0  0  0
  1  2  1  0
  2  3  2  0
  3  4  1  0
  4  5  1  0
  4  6  1  0
  4  7  1  0
  3  8  1  0
  8  9  1  0
  8 10  1  0
  8 11  1  0
 11 12  1  0
 11 13  1  0
 11 14  1  0
 14 15  1  0
 14 16  1  0
 16 17  1  0
 16 18  1  0
 16  2  1  0
M  END
$$$$

     RDKit          2D

 17 16  0  0  0  0  0  0  0  0999 V2000
   -0.1429    0.3366    0.0000 C   0  0  0  0  0  0  0  0  0  0  0  0
    1.2990    0.7500    0.0000 C   0  0  0  0  0  0  0  0  0  0  0  0
    2.5981   -0.0000    0.0000 C   0  0  0  0  0  0  0  0  0  0  0  0
    3.8971   -0.7500    0.0000 C   0  0  0  0  0  0  0  0  0  0  0  0
    5.1962   -1.5000    0.0000 F   0  0  0  0  0  0  0  0  0  0  0  0
    3.6774   -1.5163    0.0000 F   0  0  0  0  0  0  0  0  0  0  0  0
    4.4302   -0.0426    0.0000 F   0  0  0  0  0  0  0  0  0  0  0  0
    3.3481    1.2990    0.0000 C   0  0  0  0  0  0  0  0  0  0  0  0
    4.0981    2.5981    0.0000 F   0  0  0  0  0  0  0  0  0  0  0  0
    4.1634    0.9530    0.0000 F   0  0  0  0  0  0  0  0  0  0  0  0
    2.0490    2.0490    0.0000 F   0  0  0  0  0  0  0  0  0  0  0  0
    1.8481   -1.2990    0.0000 P   0  0  0  0  0  0  0  0  0  0  0  0
    1.0981   -2.5981    0.0000 O   0  0  0  0  0  0  0  0  0  0  0  0
    3.1471   -2.0490    0.0000 O   0  0  0  0  0  0  0  0  0  0  0  0
    3.1471   -3.5490    0.0000 C   0  0  0  0  0  0  0  0  0  0  0  0
    0.5490   -0.5490    0.0000 O   0  0  0  0  0  0  0  0  0  0  0  0
   -0.7500   -1.2990    0.0000 C   0  0  0  0  0  0  0  0  0  0  0  0
  1  2  1  0
  2  3  1  0
  3  4  1  0
  4  5  1  0
  4  6  1  0
  4  7  1  0
  3  8  1  0
  8  9  1  0
  8 10  1  0
  8 11  1  0
  3 12  1  0
 12 13  2  0
 12 14  1  0
 14 15  1  0
 12 16  1  0
 16 17  1  0
M  END
$$$$

     RDKit          2D

 18 18  0  0  0  0  0  0  0  0999 V2000
    3.5377   -3.4056    0.0000 C   0  0  0  0  0  0  0  0  0  0  0  0
    2.3886   -2.4414    0.0000 C   0  0  0  0  0  0  0  0  0  0  0  0
    2.6491   -0.9642    0.0000 N   0  0  0  0  0  0  0  0  0  0  0  0
    4.0586   -0.4512    0.0000 C   0  0  0  0  0  0  0  0  0  0  0  0
    5.2077   -1.4153    0.0000 C   0  0  0  0  0  0  0  0  0  0  0  0
    1.5000    0.0000    0.0000 C   0  0  0  0  0  0  0  0  0  0  0  0
    2.6491    0.9642    0.0000 C   0  0  0  0  0  0  0  0  0  0  0  0
    4.0586    0.4512    0.0000 F   0  0  0  0  0  0  0  0  0  0  0  0
    2.3886    2.4414    0.0000 C   0  0  0  0  0  0  0  0  0  0  0  0
    2.1281    3.9186    0.0000 F   0  0  0  0  0  0  0  0  0  0  0  0
    0.8923    2.5461    0.0000 F   0  0  0  0  0  0  0  0  0  0  0  0
    3.8658    2.7019    0.0000 F   0  0  0  0  0  0  0  0  0  0  0  0
    0.7500   -1.2990    0.0000 O   0  0  0  0  0  0  0  0  0  0  0  0
   -0.7500   -1.2990    0.0000 C   0  0  0  0  0  0  0  0  0  0  0  0
   -1.5000    0.0000    0.0000 C   0  0  0  0  0  0  0  0  0  0  0  0
   -0.7500    1.2990    0.0000 C   0  0  0  0  0  0  0  0  0  0  0  0
   -1.5000    2.5981    0.0000 C   0  0  0  0  0  0  0  0  0  0  0  0
    0.7500    1.2990    0.0000 O   0  0  0  0  0  0  0  0  0  0  0  0
  1  2  1  0
  2  3  1  0
  3  4  1  0
  4  5  1  0
  3  6  1  0
  6  7  1  0
  7  8  1  0
  7  9  1  0
  9 10  1  0
  9 11  1  0
  9 12  1  0
  6 13  1  0
 13 14  1  0
 14 15  1  0
 15 16  1  0
 16 17  1  0
 16 18  1  0
 18  6  1  0
M  END
$$$$

     RDKit          2D

 17 16  0  0  0  0  0  0  0  0999 V2000
    5.5981    4.5000    0.0000 O   0  0  0  0  0  0  0  0  0  0  0  0
    4.0981    4.5000    0.0000 S   0  0  0  0  0  0  0  0  0  0  0  0
    4.0981    6.0000    0.0000 O   0  0  0  0  0  0  0  0  0  0  0  0
    4.1952    3.7088    0.0000 Cl  0  0  0  0  0  0  0  0  0  0  0  0
    2.5981    4.5000    0.0000 C   0  0  0  0  0  0  0  0  0  0  0  0
    2.5981    6.0000    0.0000 F   0  0  0  0  0  0  0  0  0  0  0  0
    1.0981    4.5000    0.0000 F   0  0  0  0  0  0  0  0  0  0  0  0
    2.5981    3.0000    0.0000 C   0  0  0  0  0  0  0  0  0  0  0  0
    1.0981    3.0000    0.0000 F   0  0  0  0  0  0  0  0  0  0  0  0
    3.4772    2.8920    0.0000 F   0  0  0  0  0  0  0  0  0  0  0  0
    2.5981    1.5000    0.0000 O   0  0  0  0  0  0  0  0  0  0  0  0
    1.2990    0.7500    0.0000 C   0  0  0  0  0  0  0  0  0  0  0  0
    2.0490   -0.5490    0.0000 F   0  0  0  0  0  0  0  0  0  0  0  0
    0.5490    2.0490    0.0000 F   0  0  0  0  0  0  0  0  0  0  0  0
    0.0000    0.0000    0.0000 C   0  0  0  0  0  0  0  0  0  0  0  0
   -1.2990    0.7500    0.0000 F   0  0  0  0  0  0  0  0  0  0  0  0
   -0.0000   -1.5000    0.0000 F   0  0  0  0  0  0  0  0  0  0  0  0
  1  2  2  0
  2  3  2  0
  2  4  1  0
  2  5  1  0
  5  6  1  0
  5  7  1  0
  5  8  1  0
  8  9  1  0
  8 10  1  0
  8 11  1  0
 11 12  1  0
 12 13  1  0
 12 14  1  0
 12 15  1  0
 15 16  1  0
 15 17  1  0
M  END
$$$$

     RDKit          2D

 21 20  0  0  0  0  0  0  0  0999 V2000
    0.0000    0.0000    0.0000 C   0  0  0  0  0  0  0  0  0  0  0  0
    1.2990    0.7500    0.0000 C   0  0  0  0  0  0  0  0  0  0  0  0
    2.5981   -0.0000    0.0000 C   0  0  0  0  0  0  0  0  0  0  0  0
    3.8971    0.7500    0.0000 C   0  0  0  0  0  0  0  0  0  0  0  0
    5.1962   -0.0000    0.0000 C   0  0  0  0  0  0  0  0  0  0  0  0
    6.4952    0.7500    0.0000 C   0  0  0  0  0  0  0  0  0  0  0  0
    7.7942   -0.0000    0.0000 C   0  0  0  0  0  0  0  0  0  0  0  0
    9.0933    0.7500    0.0000 C   0  0  0  0  0  0  0  0  0  0  0  0
   10.3923   -0.0000    0.0000 C   0  0  0  0  0  0  0  0  0  0  0  0
   11.6913    0.7500    0.0000 C   0  0  0  0  0  0  0  0  0  0  0  0
   12.9904   -0.0000    0.0000 C   0  0  0  0  0  0  0  0  0  0  0  0
   14.2894    0.7500    0.0000 C   0  0  0  0  0  0  0  0  0  0  0  0
   15.5885   -0.0000    0.0000 O   0  0  0  0  0  0  0  0  0  0  0  0
   16.8875    0.7500    0.0000 C   0  0  0  0  0  0  0  0  0  0  0  0
   16.8875    2.2500    0.0000 O   0  0  0  0  0  0  0  0  0  0  0  0
   18.1865   -0.0000    0.0000 C   0  0  0  0  0  0  0  0  0  0  0  0
   18.1865   -1.5000    0.0000 F   0  0  0  0  0  0  0  0  0  0  0  0
   19.4856    0.7500    0.0000 C   0  0  0  0  0  0  0  0  0  0  0  0
   20.7846    1.5000    0.0000 F   0  0  0  0  0  0  0  0  0  0  0  0
   20.2356   -0.5490    0.0000 F   0  0  0  0  0  0  0  0  0  0  0  0
   18.7356    2.0490    0.0000 F   0  0  0  0  0  0  0  0  0  0  0  0
  1  2  1  0
  2  3  1  0
  3  4  1  0
  4  5  1  0
  5  6  1  0
  6  7  1  0
  7  8  1  0
  8  9  1  0
  9 10  1  0
 10 11  1  0
 11 12  1  0
 12 13  1  0
 13 14  1  0
 14 15  2  0
 14 16  1  0
 16 17  1  0
 16 18  1  0
 18 19  1  0
 18 20  1  0
 18 21  1  0
M  END
$$$$

     RDKit          2D

 17 16  0  0  0  0  0  0  0  0999 V2000
    0.0000    0.0000    0.0000 C   0  0  0  0  0  0  0  0  0  0  0  0
    1.2990    0.7500    0.0000 O   0  0  0  0  0  0  0  0  0  0  0  0
    2.5981   -0.0000    0.0000 C   0  0  0  0  0  0  0  0  0  0  0  0
    2.5981   -1.5000    0.0000 O   0  0  0  0  0  0  0  0  0  0  0  0
    3.8971    0.7500    0.0000 C   0  0  0  0  0  0  0  0  0  0  0  0
    4.6471   -0.5490    0.0000 F   0  0  0  0  0  0  0  0  0  0  0  0
    3.1471    2.0490    0.0000 F   0  0  0  0  0  0  0  0  0  0  0  0
    5.1962    1.5000    0.0000 C   0  0  0  0  0  0  0  0  0  0  0  0
    4.4462    2.7990    0.0000 F   0  0  0  0  0  0  0  0  0  0  0  0
    5.9462    0.2010    0.0000 F   0  0  0  0  0  0  0  0  0  0  0  0
    6.4952    2.2500    0.0000 C   0  0  0  0  0  0  0  0  0  0  0  0
    7.2452    0.9510    0.0000 F   0  0  0  0  0  0  0  0  0  0  0  0
    5.7452    3.5490    0.0000 F   0  0  0  0  0  0  0  0  0  0  0  0
    7.7942    3.0000    0.0000 C   0  0  0  0  0  0  0  0  0  0  0  0
    9.0933    3.7500    0.0000 F   0  0  0  0  0  0  0  0  0  0  0  0
    7.0442    4.2990    0.0000 F   0  0  0  0  0  0  0  0  0  0  0  0
    8.5442    1.7010    0.0000 Cl  0  0  0  0  0  0  0  0  0  0  0  0
  1  2  1  0
  2  3  1  0
  3  4  1  0
  3  5  1  0
  5  6  1  0
  5  7  1  0
  5  8  1  0
  8  9  1  0
  8 10  1  0
  8 11  1  0
 11 12  1  0
 11 13  1  0
 11 14  1  0
 14 15  1  0
 14 16  1  0
 14 17  1  0
M  END
$$$$

     RDKit          2D

 21 21  0  0  0  0  0  0  0  0999 V2000
    5.9087   -1.2990    0.0000 C   0  0  0  0  0  0  0  0  0  0  0  0
    4.6097   -0.5490    0.0000 C   0  0  0  0  0  0  0  0  0  0  0  0
    3.3107   -1.2990    0.0000 Si  0  0  0  0  0  4  0  0  0  0  0  0
    2.0116   -2.0490    0.0000 C   0  0  0  0  0  0  0  0  0  0  0  0
    2.0116   -3.5490    0.0000 C   0  0  0  0  0  0  0  0  0  0  0  0
    4.0607   -2.5981    0.0000 C   0  0  0  0  0  0  0  0  0  0  0  0
    3.3107   -3.8971    0.0000 C   0  0  0  0  0  0  0  0  0  0  0  0
    2.5607    0.0000    0.0000 O   0  0  0  0  0  0  0  0  0  0  0  0
    1.0607    0.0000    0.0000 C   0  0  0  0  0  0  0  0  0  0  0  0
   -0.0000   -1.0607    0.0000 C   0  0  0  0  0  0  0  0  0  0  0  0
   -1.0607    0.0000    0.0000 C   0  0  0  0  0  0  0  0  0  0  0  0
   -2.5607    0.0000    0.0000 O   0  0  0  0  0  0  0  0  0  0  0  0
    0.0000    1.0607    0.0000 C   0  0  0  0  0  0  0  0  0  0  0  0
   -1.0607    2.1213    0.0000 C   0  0  0  0  0  0  0  0  0  0  0  0
   -2.1213    3.1820    0.0000 F   0  0  0  0  0  0  0  0  0  0  0  0
   -0.5154    2.8193    0.0000 F   0  0  0  0  0  0  0  0  0  0  0  0
   -2.1213    1.0607    0.0000 F   0  0  0  0  0  0  0  0  0  0  0  0
    1.0607    2.1213    0.0000 C   0  0  0  0  0  0  0  0  0  0  0  0
    2.1213    3.1820    0.0000 F   0  0  0  0  0  0  0  0  0  0  0  0
    2.1213    1.0607    0.0000 F   0  0  0  0  0  0  0  0  0  0  0  0
    0.5154    2.8193    0.0000 F   0  0  0  0  0  0  0  0  0  0  0  0
  1  2  1  0
  2  3  1  0
  3  4  1  0
  4  5  1  0
  3  6  1  0
  6  7  1  0
  3  8  1  0
  8  9  1  0
  9 10  2  0
 10 11  1  0
 11 12  2  0
 11 13  1  0
 13 14  1  0
 14 15  1  0
 14 16  1  0
 14 17  1  0
 13 18  1  0
 18 19  1  0
 18 20  1  0
 18 21  1  0
 13  9  1  0
M  END
$$$$

     RDKit          2D

 16 16  0  0  0  0  0  0  0  0999 V2000
    3.2286   -0.0000    0.0000 O   0  0  0  0  0  0  0  0  0  0  0  0
    1.7286    0.0000    0.0000 C   0  0  0  0  0  0  0  0  0  0  0  0
    1.0777    1.3515    0.0000 C   0  0  0  0  0  0  0  0  0  0  0  0
    2.0130    2.5242    0.0000 F   0  0  0  0  0  0  0  0  0  0  0  0
   -0.3846    1.6852    0.0000 C   0  0  0  0  0  0  0  0  0  0  0  0
   -0.7184    3.1476    0.0000 F   0  0  0  0  0  0  0  0  0  0  0  0
   -1.5574    0.7500    0.0000 C   0  0  0  0  0  0  0  0  0  0  0  0
   -2.9088    1.4008    0.0000 F   0  0  0  0  0  0  0  0  0  0  0  0
   -1.5574   -0.7500    0.0000 C   0  0  0  0  0  0  0  0  0  0  0  0
   -2.9088   -1.4008    0.0000 F   0  0  0  0  0  0  0  0  0  0  0  0
   -0.3846   -1.6852    0.0000 C   0  0  0  0  0  0  0  0  0  0  0  0
    0.0966   -3.1059    0.0000 F   0  0  0  0  0  0  0  0  0  0  0  0
   -1.5574   -2.6205    0.0000 F   0  0  0  0  0  0  0  0  0  0  0  0
    1.0777   -1.3515    0.0000 C   0  0  0  0  0  0  0  0  0  0  0  0
    2.5401   -1.6852    0.0000 F   0  0  0  0  0  0  0  0  0  0  0  0
    1.2606   -2.8403    0.0000 F   0  0  0  0  0  0  0  0  0  0  0  0
  1  2  2  0
  2  3  1  0
  3  4  1  0
  3  5  2  0
  5  6  1  0
  5  7  1  0
  7  8  1  0
  7  9  2  0
  9 10  1  0
  9 11  1  0
 11 12  1  0
 11 13  1  0
 11 14  1  0
 14 15  1  0
 14 16  1  0
 14  2  1  0
M  END
$$$$

     RDKit          2D

 21 22  0  0  0  0  0  0  0  0999 V2000
    0.2010   -3.3481    0.0000 F   0  0  0  0  0  0  0  0  0  0  0  0
    1.5000   -2.5981    0.0000 C   0  0  0  0  0  0  0  0  0  0  0  0
    2.7990   -1.8481    0.0000 F   0  0  0  0  0  0  0  0  0  0  0  0
    0.7500   -1.2990    0.0000 C   0  0  0  0  0  0  0  0  0  0  0  0
    1.5000    0.0000    0.0000 C   0  0  0  0  0  0  0  0  0  0  0  0
    0.7500    1.2990    0.0000 C   0  0  0  0  0  0  0  0  0  0  0  0
   -0.7500    1.2990    0.0000 C   0  0  0  0  0  0  0  0  0  0  0  0
   -1.5000    0.0000    0.0000 C   0  0  0  0  0  0  0  0  0  0  0  0
   -0.7500   -1.2990    0.0000 C   0  0  0  0  0  0  0  0  0  0  0  0
    2.2500   -3.8971    0.0000 C   0  0  0  0  0  0  0  0  0  0  0  0
    3.5490   -3.1471    0.0000 F   0  0  0  0  0  0  0  0  0  0  0  0
    0.9510   -4.6471    0.0000 F   0  0  0  0  0  0  0  0  0  0  0  0
    3.0000   -5.1962    0.0000 C   0  0  0  0  0  0  0  0  0  0  0  0
    4.2990   -4.4462    0.0000 F   0  0  0  0  0  0  0  0  0  0  0  0
    1.7010   -5.9462    0.0000 F   0  0  0  0  0  0  0  0  0  0  0  0
    3.7500   -6.4952    0.0000 C   0  0  0  0  0  0  0  0  0  0  0  0
    3.0000   -7.7942    0.0000 C   0  0  0  0  0  0  0  0  0  0  0  0
    3.7500   -9.0933    0.0000 C   0  0  0  0  0  0  0  0  0  0  0  0
    5.2500   -9.0933    0.0000 C   0  0  0  0  0  0  0  0  0  0  0  0
    6.0000   -7.7942    0.0000 C   0  0  0  0  0  0  0  0  0  0  0  0
    5.2500   -6.4952    0.0000 C   0  0  0  0  0  0  0  0  0  0  0  0
  1  2  1  0
  2  3  1  0
  2  4  1  0
  4  5  2  0
  5  6  1  0
  6  7  2  0
  7  8  1  0
  8  9  2  0
  2 10  1  0
 10 11  1  0
 10 12  1  0
 10 13  1  0
 13 14  1  0
 13 15  1  0
 13 16  1  0
 16 17  2  0
 17 18  1  0
 18 19  2  0
 19 20  1  0
 20 21  2  0
  9  4  1  0
 21 16  1  0
M  END
$$$$

     RDKit          2D

 24 25  0  0  0  0  0  0  0  0999 V2000
    1.5000   -5.1962    0.0000 O   0  0  0  0  0  0  0  0  0  0  0  0
    0.7500   -3.8971    0.0000 C   0  0  0  0  0  0  0  0  0  0  0  0
    1.5000   -2.5981    0.0000 N   0  0  0  0  0  0  0  0  0  0  0  0
    0.7500   -1.2990    0.0000 C   0  0  0  0  0  0  0  0  0  0  0  0
    1.5000    0.0000    0.0000 C   0  0  0  0  0  0  0  0  0  0  0  0
    0.7500    1.2990    0.0000 C   0  0  0  0  0  0  0  0  0  0  0  0
   -0.7500    1.2990    0.0000 C   0  0  0  0  0  0  0  0  0  0  0  0
   -1.5000    0.0000    0.0000 C   0  0  0  0  0  0  0  0  0  0  0  0
   -0.7500   -1.2990    0.0000 C   0  0  0  0  0  0  0  0  0  0  0  0
   -1.5000   -2.5981    0.0000 N   0  0  0  0  0  0  0  0  0  0  0  0
   -0.7500   -3.8971    0.0000 C   0  0  0  0  0  0  0  0  0  0  0  0
   -1.5000   -5.1962    0.0000 C   0  0  0  0  0  0  0  0  0  0  0  0
   -2.7990   -4.4462    0.0000 F   0  0  0  0  0  0  0  0  0  0  0  0
   -0.2010   -5.9462    0.0000 F   0  0  0  0  0  0  0  0  0  0  0  0
   -2.2500   -6.4952    0.0000 C   0  0  0  0  0  0  0  0  0  0  0  0
   -0.9510   -7.2452    0.0000 F   0  0  0  0  0  0  0  0  0  0  0  0
   -3.5490   -5.7452    0.0000 F   0  0  0  0  0  0  0  0  0  0  0  0
   -3.0000   -7.7942    0.0000 C   0  0  0  0  0  0  0  0  0  0  0  0
   -4.2990   -7.0442    0.0000 F   0  0  0  0  0  0  0  0  0  0  0  0
   -1.7010   -8.5442    0.0000 F   0  0  0  0  0  0  0  0  0  0  0  0
   -3.7500   -9.0933    0.0000 C   0  0  0  0  0  0  0  0  0  0  0  0
   -4.5000  -10.3923    0.0000 F   0  0  0  0  0  0  0  0  0  0  0  0
   -2.4510   -9.8433    0.0000 F   0  0  0  0  0  0  0  0  0  0  0  0
   -5.0490   -8.3433    0.0000 F   0  0  0  0  0  0  0  0  0  0  0  0
  1  2  2  0
  2  3  1  0
  3  4  1  0
  4  5  2  0
  5  6  1  0
  6  7  2  0
  7  8  1  0
  8  9  2  0
  9 10  1  0
 10 11  2  0
 11 12  1  0
 12 13  1  0
 12 14  1  0
 12 15  1  0
 15 16  1  0
 15 17  1  0
 15 18  1  0
 18 19  1  0
 18 20  1  0
 18 21  1  0
 21 22  1  0
 21 23  1  0
 21 24  1  0
 11  2  1  0
  9  4  1  0
M  END
$$$$

     RDKit          2D

 13 12  0  0  0  0  0  0  0  0999 V2000
    0.0000    0.0000    0.0000 C   0  0  0  0  0  0  0  0  0  0  0  0
    1.2990    0.7500    0.0000 Si  0  0  0  0  0  4  0  0  0  0  0  0
    2.5981    1.5000    0.0000 C   0  0  0  0  0  0  0  0  0  0  0  0
    2.0490   -0.5490    0.0000 C   0  0  0  0  0  0  0  0  0  0  0  0
    0.5490    2.0490    0.0000 O   0  0  0  0  0  0  0  0  0  0  0  0
    1.2990    3.3481    0.0000 C   0  0  0  0  0  0  0  0  0  0  0  0
    0.5490    4.6471    0.0000 C   0  0  0  0  0  0  0  0  0  0  0  0
    1.8481    5.3971    0.0000 F   0  0  0  0  0  0  0  0  0  0  0  0
   -0.7500    3.8971    0.0000 F   0  0  0  0  0  0  0  0  0  0  0  0
   -0.2010    5.9462    0.0000 C   0  0  0  0  0  0  0  0  0  0  0  0
   -0.9510    7.2452    0.0000 F   0  0  0  0  0  0  0  0  0  0  0  0
   -1.5000    5.1962    0.0000 F   0  0  0  0  0  0  0  0  0  0  0  0
    1.0981    6.6962    0.0000 F   0  0  0  0  0  0  0  0  0  0  0  0
  1  2  1  0
  2  3  1  0
  2  4  1  0
  2  5  1  0
  5  6  1  0
  6  7  1  0
  7  8  1  0
  7  9  1  0
  7 10  1  0
 10 11  1  0
 10 12  1  0
 10 13  1  0
M  END
$$$$

     RDKit          2D

 19 20  0  0  0  0  0  0  0  0999 V2000
   -0.0967    5.1517    0.0000 F   0  0  0  0  0  0  0  0  0  0  0  0
   -0.4086    3.6844    0.0000 C   0  0  0  0  0  0  0  0  0  0  0  0
   -1.8351    3.2209    0.0000 C   0  0  0  0  0  0  0  0  0  0  0  0
   -2.9499    4.2246    0.0000 F   0  0  0  0  0  0  0  0  0  0  0  0
   -2.1470    1.7537    0.0000 C   0  0  0  0  0  0  0  0  0  0  0  0
   -3.5736    1.2902    0.0000 F   0  0  0  0  0  0  0  0  0  0  0  0
   -1.0323    0.7500    0.0000 C   0  0  0  0  0  0  0  0  0  0  0  0
    0.3943    1.2135    0.0000 C   0  0  0  0  0  0  0  0  0  0  0  0
    0.7062    2.6807    0.0000 C   0  0  0  0  0  0  0  0  0  0  0  0
    2.1328    3.1443    0.0000 F   0  0  0  0  0  0  0  0  0  0  0  0
    1.2760    0.0000    0.0000 C   0  0  0  0  0  0  0  0  0  0  0  0
    2.3907    1.0037    0.0000 F   0  0  0  0  0  0  0  0  0  0  0  0
    2.3907   -1.0037    0.0000 F   0  0  0  0  0  0  0  0  0  0  0  0
    0.3943   -1.2135    0.0000 C   0  0  0  0  0  0  0  0  0  0  0  0
    1.6933   -1.9635    0.0000 F   0  0  0  0  0  0  0  0  0  0  0  0
   -0.2158   -2.5838    0.0000 Br  0  0  0  0  0  0  0  0  0  0  0  0
   -1.0323   -0.7500    0.0000 C   0  0  0  0  0  0  0  0  0  0  0  0
   -1.3442   -2.2172    0.0000 F   0  0  0  0  0  0  0  0  0  0  0  0
   -2.5241   -0.5932    0.0000 F   0  0  0  0  0  0  0  0  0  0  0  0
  1  2  1  0
  2  3  2  0
  3  4  1  0
  3  5  1  0
  5  6  1  0
  5  7  2  0
  7  8  1  0
  8  9  2  0
  9 10  1  0
  8 11  1  0
 11 12  1  0
 11 13  1  0
 11 14  1  0
 14 15  1  0
 14 16  1  0
 14 17  1  0
 17 18  1  0
 17 19  1  0
  9  2  1  0
 17  7  1  0
M  END
$$$$

     RDKit          2D

 17 16  0  0  0  0  0  0  0  0999 V2000
    0.0000    0.0000    0.0000 C   0  0  0  0  0  0  0  0  0  0  0  0
    1.2990    0.7500    0.0000 O   0  0  0  0  0  0  0  0  0  0  0  0
    2.5981   -0.0000    0.0000 C   0  0  0  0  0  0  0  0  0  0  0  0
    2.5981   -1.5000    0.0000 O   0  0  0  0  0  0  0  0  0  0  0  0
    3.8971    0.7500    0.0000 C   0  0  0  0  0  0  0  0  0  0  0  0
    5.1962   -0.0000    0.0000 C   0  0  0  0  0  0  0  0  0  0  0  0
    5.1962   -1.5000    0.0000 O   0  0  0  0  0  0  0  0  0  0  0  0
    6.4952    0.7500    0.0000 C   0  0  0  0  0  0  0  0  0  0  0  0
    7.2452   -0.5490    0.0000 F   0  0  0  0  0  0  0  0  0  0  0  0
    5.7452    2.0490    0.0000 F   0  0  0  0  0  0  0  0  0  0  0  0
    7.7942    1.5000    0.0000 C   0  0  0  0  0  0  0  0  0  0  0  0
    7.0442    2.7990    0.0000 F   0  0  0  0  0  0  0  0  0  0  0  0
    8.5442    0.2010    0.0000 F   0  0  0  0  0  0  0  0  0  0  0  0
    9.0933    2.2500    0.0000 C   0  0  0  0  0  0  0  0  0  0  0  0
   10.3923    3.0000    0.0000 F   0  0  0  0  0  0  0  0  0  0  0  0
    9.8433    0.9510    0.0000 F   0  0  0  0  0  0  0  0  0  0  0  0
    8.3433    3.5490    0.0000 F   0  0  0  0  0  0  0  0  0  0  0  0
  1  2  1  0
  2  3  1  0
  3  4  2  0
  3  5  1  0
  5  6  1  0
  6  7  2  0
  6  8  1  0
  8  9  1  0
  8 10  1  0
  8 11  1  0
 11 12  1  0
 11 13  1  0
 11 14  1  0
 14 15  1  0
 14 16  1  0
 14 17  1  0
M  END
$$$$

     RDKit          2D

 26 25  0  0  0  0  0  0  0  0999 V2000
   -0.0000   -1.5000    0.0000 O   0  0  0  0  0  0  0  0  0  0  0  0
    0.0000    0.0000    0.0000 C   0  0  0  0  0  0  0  0  0  0  0  0
   -1.2990    0.7500    0.0000 N   0  0  0  0  0  0  0  0  0  0  0  0
   -2.5981    0.0000    0.0000 O   0  0  0  0  0  0  0  0  0  0  0  0
    1.2990    0.7500    0.0000 C   0  0  0  0  0  0  0  0  0  0  0  0
    2.0490   -0.5490    0.0000 F   0  0  0  0  0  0  0  0  0  0  0  0
    0.5490    2.0490    0.0000 F   0  0  0  0  0  0  0  0  0  0  0  0
    2.5981    1.5000    0.0000 C   0  0  0  0  0  0  0  0  0  0  0  0
    1.8481    2.7990    0.0000 F   0  0  0  0  0  0  0  0  0  0  0  0
    3.3481    0.2010    0.0000 F   0  0  0  0  0  0  0  0  0  0  0  0
    3.8971    2.2500    0.0000 C   0  0  0  0  0  0  0  0  0  0  0  0
    4.6471    0.9510    0.0000 F   0  0  0  0  0  0  0  0  0  0  0  0
    3.1471    3.5490    0.0000 F   0  0  0  0  0  0  0  0  0  0  0  0
    5.1962    3.0000    0.0000 C   0  0  0  0  0  0  0  0  0  0  0  0
    4.4462    4.2990    0.0000 F   0  0  0  0  0  0  0  0  0  0  0  0
    5.9462    1.7010    0.0000 F   0  0  0  0  0  0  0  0  0  0  0  0
    6.4952    3.7500    0.0000 C   0  0  0  0  0  0  0  0  0  0  0  0
    7.2452    2.4510    0.0000 F   0  0  0  0  0  0  0  0  0  0  0  0
    5.7452    5.0490    0.0000 F   0  0  0  0  0  0  0  0  0  0  0  0
    7.7942    4.5000    0.0000 C   0  0  0  0  0  0  0  0  0  0  0  0
    7.0442    5.7990    0.0000 F   0  0  0  0  0  0  0  0  0  0  0  0
    8.5442    3.2010    0.0000 F   0  0  0  0  0  0  0  0  0  0  0  0
    9.0933    5.2500    0.0000 C   0  0  0  0  0  0  0  0  0  0  0  0
   10.3923    6.0000    0.0000 F   0  0  0  0  0  0  0  0  0  0  0  0
    9.8433    3.9510    0.0000 F   0  0  0  0  0  0  0  0  0  0  0  0
    8.3433    6.5490    0.0000 F   0  0  0  0  0  0  0  0  0  0  0  0
  1  2  2  0
  2  3  1  0
  3  4  1  0
  2  5  1  0
  5  6  1  0
  5  7  1  0
  5  8  1  0
  8  9  1  0
  8 10  1  0
  8 11  1  0
 11 12  1  0
 11 13  1  0
 11 14  1  0
 14 15  1  0
 14 16  1  0
 14 17  1  0
 17 18  1  0
 17 19  1  0
 17 20  1  0
 20 21  1  0
 20 22  1  0
 20 23  1  0
 23 24  1  0
 23 25  1  0
 23 26  1  0
M  END
$$$$

     RDKit          2D

 22 22  0  0  0  0  0  0  0  0999 V2000
    1.4769    2.2500    0.0000 F   0  0  0  0  0  0  0  0  0  0  0  0
    2.7760    1.5000    0.0000 C   0  0  0  0  0  0  0  0  0  0  0  0
    4.0750    2.2500    0.0000 C   0  0  0  0  0  0  0  0  0  0  0  0
    5.3741    1.5000    0.0000 C   0  0  0  0  0  0  0  0  0  0  0  0
    6.6731    0.7500    0.0000 F   0  0  0  0  0  0  0  0  0  0  0  0
    4.8993    0.3816    0.0000 F   0  0  0  0  0  0  0  0  0  0  0  0
    6.1241    2.7990    0.0000 F   0  0  0  0  0  0  0  0  0  0  0  0
    4.0750    3.7500    0.0000 C   0  0  0  0  0  0  0  0  0  0  0  0
    4.0750    5.2500    0.0000 F   0  0  0  0  0  0  0  0  0  0  0  0
    5.5750    3.7500    0.0000 F   0  0  0  0  0  0  0  0  0  0  0  0
    2.5750    3.7500    0.0000 F   0  0  0  0  0  0  0  0  0  0  0  0
    2.7760    0.0000    0.0000 C   0  0  0  0  0  0  0  0  0  0  0  0
    3.9819   -0.1481    0.0000 F   0  0  0  0  0  0  0  0  0  0  0  0
    1.2760   -0.0000    0.0000 N   0  0  0  0  0  0  0  0  0  0  0  0
    0.3943    1.2135    0.0000 C   0  0  0  0  0  0  0  0  0  0  0  0
   -1.0323    0.7500    0.0000 C   0  0  0  0  0  0  0  0  0  0  0  0
   -1.0323   -0.7500    0.0000 C   0  0  0  0  0  0  0  0  0  0  0  0
    0.3943   -1.2135    0.0000 C   0  0  0  0  0  0  0  0  0  0  0  0
    2.7760   -1.5000    0.0000 C   0  0  0  0  0  0  0  0  0  0  0  0
    2.7760   -3.0000    0.0000 F   0  0  0  0  0  0  0  0  0  0  0  0
    4.2760   -1.5000    0.0000 F   0  0  0  0  0  0  0  0  0  0  0  0
    1.2760   -1.5000    0.0000 F   0  0  0  0  0  0  0  0  0  0  0  0
  1  2  1  0
  2  3  2  0
  3  4  1  0
  4  5  1  0
  4  6  1  0
  4  7  1  0
  3  8  1  0
  8  9  1  0
  8 10  1  0
  8 11  1  0
  2 12  1  0
 12 13  1  0
 12 14  1  0
 14 15  1  0
 15 16  1  0
 16 17  1  0
 17 18  1  0
 12 19  1  0
 19 20  1  0
 19 21  1  0
 19 22  1  0
 18 14  1  0
M  END
$$$$

     RDKit          2D

 29 29  0  0  0  0  0  0  0  0999 V2000
    6.0000    0.0000    0.0000 O   0  0  0  0  0  0  0  0  0  0  0  0
    5.2500   -1.2990    0.0000 C   0  0  0  0  0  0  0  0  0  0  0  0
    3.7500   -1.2990    0.0000 C   0  0  0  0  0  0  0  0  0  0  0  0
    3.0000    0.0000    0.0000 S   0  0  0  0  0  0  0  0  0  0  0  0
    1.5000    0.0000    0.0000 C   0  0  0  0  0  0  0  0  0  0  0  0
    0.7500   -1.2990    0.0000 C   0  0  0  0  0  0  0  0  0  0  0  0
   -0.7500   -1.2990    0.0000 C   0  0  0  0  0  0  0  0  0  0  0  0
   -1.5000    0.0000    0.0000 C   0  0  0  0  0  0  0  0  0  0  0  0
   -0.7500    1.2990    0.0000 C   0  0  0  0  0  0  0  0  0  0  0  0
    0.7500    1.2990    0.0000 C   0  0  0  0  0  0  0  0  0  0  0  0
    6.0000   -2.5981    0.0000 C   0  0  0  0  0  0  0  0  0  0  0  0
    7.2990   -1.8481    0.0000 F   0  0  0  0  0  0  0  0  0  0  0  0
    4.7010   -3.3481    0.0000 F   0  0  0  0  0  0  0  0  0  0  0  0
    6.7500   -3.8971    0.0000 C   0  0  0  0  0  0  0  0  0  0  0  0
    5.4510   -4.6471    0.0000 F   0  0  0  0  0  0  0  0  0  0  0  0
    8.0490   -3.1471    0.0000 F   0  0  0  0  0  0  0  0  0  0  0  0
    7.5000   -5.1962    0.0000 C   0  0  0  0  0  0  0  0  0  0  0  0
    8.7990   -4.4462    0.0000 F   0  0  0  0  0  0  0  0  0  0  0  0
    6.2010   -5.9462    0.0000 F   0  0  0  0  0  0  0  0  0  0  0  0
    8.2500   -6.4952    0.0000 C   0  0  0  0  0  0  0  0  0  0  0  0
    6.9510   -7.2452    0.0000 F   0  0  0  0  0  0  0  0  0  0  0  0
    9.5490   -5.7452    0.0000 F   0  0  0  0  0  0  0  0  0  0  0  0
    9.0000   -7.7942    0.0000 C   0  0  0  0  0  0  0  0  0  0  0  0
   10.2990   -7.0442    0.0000 F   0  0  0  0  0  0  0  0  0  0  0  0
    7.7010   -8.5442    0.0000 F   0  0  0  0  0  0  0  0  0  0  0  0
    9.7500   -9.0933    0.0000 C   0  0  0  0  0  0  0  0  0  0  0  0
   10.5000  -10.3923    0.0000 F   0  0  0  0  0  0  0  0  0  0  0  0
    8.4510   -9.8433    0.0000 F   0  0  0  0  0  0  0  0  0  0  0  0
   11.0490   -8.3433    0.0000 F   0  0  0  0  0  0  0  0  0  0  0  0
  1  2  1  0
  2  3  1  0
  3  4  1  0
  4  5  1  0
  5  6  2  0
  6  7  1  0
  7  8  2  0
  8  9  1  0
  9 10  2  0
  2 11  1  0
 11 12  1  0
 11 13  1  0
 11 14  1  0
 14 15  1  0
 14 16  1  0
 14 17  1  0
 17 18  1  0
 17 19  1  0
 17 20  1  0
 20 21  1  0
 20 22  1  0
 20 23  1  0
 23 24  1  0
 23 25  1  0
 23 26  1  0
 26 27  1  0
 26 28  1  0
 26 29  1  0
 10  5  1  0
M  END
$$$$

     RDKit          2D

 22 23  0  0  0  0  0  0  0  0999 V2000
    5.2500   -3.8971    0.0000 F   0  0  0  0  0  0  0  0  0  0  0  0
    4.5000   -2.5981    0.0000 C   0  0  0  0  0  0  0  0  0  0  0  0
    5.2500   -1.2990    0.0000 C   0  0  0  0  0  0  0  0  0  0  0  0
    6.0000   -0.0000    0.0000 F   0  0  0  0  0  0  0  0  0  0  0  0
    6.5490   -2.0490    0.0000 F   0  0  0  0  0  0  0  0  0  0  0  0
    3.9510   -0.5490    0.0000 F   0  0  0  0  0  0  0  0  0  0  0  0
    3.0000   -2.5981    0.0000 C   0  0  0  0  0  0  0  0  0  0  0  0
    3.0000   -4.0981    0.0000 F   0  0  0  0  0  0  0  0  0  0  0  0
    3.0000   -1.0981    0.0000 F   0  0  0  0  0  0  0  0  0  0  0  0
    1.5000   -2.5981    0.0000 C   0  0  0  0  0  0  0  0  0  0  0  0
    0.7500   -1.2990    0.0000 C   0  0  0  0  0  0  0  0  0  0  0  0
    1.5000    0.0000    0.0000 C   0  0  0  0  0  0  0  0  0  0  0  0
    0.7500    1.2990    0.0000 C   0  0  0  0  0  0  0  0  0  0  0  0
   -0.7500    1.2990    0.0000 C   0  0  0  0  0  0  0  0  0  0  0  0
   -1.5000    0.0000    0.0000 C   0  0  0  0  0  0  0  0  0  0  0  0
   -0.7500   -1.2990    0.0000 C   0  0  0  0  0  0  0  0  0  0  0  0
    0.7500   -3.8971    0.0000 C   0  0  0  0  0  0  0  0  0  0  0  0
   -0.7500   -3.8971    0.0000 C   0  0  0  0  0  0  0  0  0  0  0  0
   -1.5000   -5.1962    0.0000 C   0  0  0  0  0  0  0  0  0  0  0  0
   -0.7500   -6.4952    0.0000 C   0  0  0  0  0  0  0  0  0  0  0  0
    0.7500   -6.4952    0.0000 C   0  0  0  0  0  0  0  0  0  0  0  0
    1.5000   -5.1962    0.0000 C   0  0  0  0  0  0  0  0  0  0  0  0
  1  2  1  0
  2  3  1  0
  3  4  1  0
  3  5  1  0
  3  6  1  0
  2  7  1  0
  7  8  1  0
  7  9  1  0
  7 10  1  0
 10 11  1  0
 11 12  2  0
 12 13  1  0
 13 14  2  0
 14 15  1  0
 15 16  2  0
 10 17  1  0
 17 18  2  0
 18 19  1  0
 19 20  2  0
 20 21  1  0
 21 22  2  0
 16 11  1  0
 22 17  1  0
M  END
$$$$

     RDKit          2D

 10  9  0  0  0  0  0  0  0  0999 V2000
   -1.5000    0.0000    0.0000 F   0  0  0  0  0  0  0  0  0  0  0  0
    0.0000    0.0000    0.0000 C   0  0  0  0  0  0  0  0  0  0  0  0
    0.0000    1.5000    0.0000 F   0  0  0  0  0  0  0  0  0  0  0  0
   -0.0000   -1.5000    0.0000 F   0  0  0  0  0  0  0  0  0  0  0  0
    1.5000    0.0000    0.0000 C   0  0  0  0  0  0  0  0  0  0  0  0
    1.5000   -1.5000    0.0000 F   0  0  0  0  0  0  0  0  0  0  0  0
    1.5000    1.5000    0.0000 F   0  0  0  0  0  0  0  0  0  0  0  0
    3.0000    0.0000    0.0000 N   0  0  0  0  0  0  0  0  0  0  0  0
    3.7500    1.2990    0.0000 Br  0  0  0  0  0  0  0  0  0  0  0  0
    3.7500   -1.2990    0.0000 Br  0  0  0  0  0  0  0  0  0  0  0  0
  1  2  1  0
  2  3  1  0
  2  4  1  0
  2  5  1  0
  5  6  1  0
  5  7  1  0
  5  8  1  0
  8  9  1  0
  8 10  1  0
M  END
$$$$

     RDKit          2D

 38 39  0  0  0  0  0  0  0  0999 V2000
    3.0000    0.0000    0.0000 C   0  0  0  0  0  0  0  0  0  0  0  0
    1.5000   -0.0000    0.0000 C   0  0  0  0  0  0  0  0  0  0  0  0
    0.7500   -1.2990    0.0000 C   0  0  0  0  0  0  0  0  0  0  0  0
   -0.7500   -1.2990    0.0000 C   0  0  0  0  0  0  0  0  0  0  0  0
   -1.5000    0.0000    0.0000 C   0  0  0  0  0  0  0  0  0  0  0  0
   -3.0000    0.0000    0.0000 C   0  0  0  0  0  0  0  0  0  0  0  0
   -3.7500    1.2990    0.0000 C   0  0  0  0  0  0  0  0  0  0  0  0
   -5.2500    1.2990    0.0000 S   0  0  0  0  0  0  0  0  0  0  0  0
   -5.1528    2.0903    0.0000 O   0  0  0  0  0  0  0  0  0  0  0  0
   -5.6130   -0.1564    0.0000 O   0  0  0  0  0  0  0  0  0  0  0  0
   -6.7500    1.2990    0.0000 C   0  0  0  0  0  0  0  0  0  0  0  0
   -7.4544   -0.0253    0.0000 F   0  0  0  0  0  0  0  0  0  0  0  0
   -8.2500    1.2990    0.0000 F   0  0  0  0  0  0  0  0  0  0  0  0
   -6.7500    2.7990    0.0000 C   0  0  0  0  0  0  0  0  0  0  0  0
   -5.8709    2.9070    0.0000 F   0  0  0  0  0  0  0  0  0  0  0  0
   -8.2500    2.7990    0.0000 F   0  0  0  0  0  0  0  0  0  0  0  0
   -6.7500    4.2990    0.0000 C   0  0  0  0  0  0  0  0  0  0  0  0
   -8.2500    4.2990    0.0000 F   0  0  0  0  0  0  0  0  0  0  0  0
   -5.2500    4.2990    0.0000 F   0  0  0  0  0  0  0  0  0  0  0  0
   -6.7500    5.7990    0.0000 C   0  0  0  0  0  0  0  0  0  0  0  0
   -8.2500    5.7990    0.0000 F   0  0  0  0  0  0  0  0  0  0  0  0
   -5.2500    5.7990    0.0000 F   0  0  0  0  0  0  0  0  0  0  0  0
   -6.7500    7.2990    0.0000 C   0  0  0  0  0  0  0  0  0  0  0  0
   -5.2500    7.2990    0.0000 F   0  0  0  0  0  0  0  0  0  0  0  0
   -8.2500    7.2990    0.0000 F   0  0  0  0  0  0  0  0  0  0  0  0
   -6.7500    8.7990    0.0000 C   0  0  0  0  0  0  0  0  0  0  0  0
   -6.7500   10.2990    0.0000 F   0  0  0  0  0  0  0  0  0  0  0  0
   -8.2500    8.7990    0.0000 F   0  0  0  0  0  0  0  0  0  0  0  0
   -5.2500    8.7990    0.0000 F   0  0  0  0  0  0  0  0  0  0  0  0
   -3.7500   -1.2990    0.0000 S   0  0  0  0  0  0  0  0  0  0  0  0
   -5.2500   -1.2990    0.0000 C   0  0  0  0  0  0  0  0  0  0  0  0
   -6.0000    0.0000    0.0000 C   0  0  0  0  0  0  0  0  0  0  0  0
   -7.5000    0.0000    0.0000 C   0  0  0  0  0  0  0  0  0  0  0  0
   -8.2500   -1.2990    0.0000 C   0  0  0  0  0  0  0  0  0  0  0  0
   -7.5000   -2.5981    0.0000 C   0  0  0  0  0  0  0  0  0  0  0  0
   -6.0000   -2.5981    0.0000 C   0  0  0  0  0  0  0  0  0  0  0  0
   -0.7500    1.2990    0.0000 C   0  0  0  0  0  0  0  0  0  0  0  0
    0.7500    1.2990    0.0000 C   0  0  0  0  0  0  0  0  0  0  0  0
  1  2  1  0
  2  3  2  0
  3  4  1  0
  4  5  2  0
  5  6  1  0
  6  7  1  0
  7  8  1  0
  8  9  2  0
  8 10  2  0
  8 11  1  0
 11 12  1  0
 11 13  1  0
 11 14  1  0
 14 15  1  0
 14 16  1  0
 14 17  1  0
 17 18  1  0
 17 19  1  0
 17 20  1  0
 20 21  1  0
 20 22  1  0
 20 23  1  0
 23 24  1  0
 23 25  1  0
 23 26  1  0
 26 27  1  0
 26 28  1  0
 26 29  1  0
  6 30  1  0
 30 31  1  0
 31 32  2  0
 32 33  1  0
 33 34  2  0
 34 35  1  0
 35 36  2  0
  5 37  1  0
 37 38  2  0
 38  2  1  0
 36 31  1  0
M  END
$$$$

     RDKit          2D

 14 13  0  0  0  0  0  0  0  0999 V2000
   -1.5000    0.0000    0.0000 F   0  0  0  0  0  0  0  0  0  0  0  0
    0.0000    0.0000    0.0000 C   0  0  0  0  0  0  0  0  0  0  0  0
    0.0000    1.5000    0.0000 F   0  0  0  0  0  0  0  0  0  0  0  0
   -0.0000   -1.5000    0.0000 Cl  0  0  0  0  0  0  0  0  0  0  0  0
    1.5000    0.0000    0.0000 C   0  0  0  0  0  0  0  0  0  0  0  0
    1.5000    1.5000    0.0000 F   0  0  0  0  0  0  0  0  0  0  0  0
    1.5000   -1.5000    0.0000 F   0  0  0  0  0  0  0  0  0  0  0  0
    3.0000    0.0000    0.0000 C   0  0  0  0  0  0  0  0  0  0  0  0
    3.0000    1.5000    0.0000 F   0  0  0  0  0  0  0  0  0  0  0  0
    3.0000   -1.5000    0.0000 F   0  0  0  0  0  0  0  0  0  0  0  0
    4.5000    0.0000    0.0000 C   0  0  0  0  0  0  0  0  0  0  0  0
    6.0000    0.0000    0.0000 F   0  0  0  0  0  0  0  0  0  0  0  0
    4.5000   -1.5000    0.0000 F   0  0  0  0  0  0  0  0  0  0  0  0
    4.5000    1.5000    0.0000 Br  0  0  0  0  0  0  0  0  0  0  0  0
  1  2  1  0
  2  3  1  0
  2  4  1  0
  2  5  1  0
  5  6  1  0
  5  7  1  0
  5  8  1  0
  8  9  1  0
  8 10  1  0
  8 11  1  0
 11 12  1  0
 11 13  1  0
 11 14  1  0
M  END
$$$$

     RDKit          2D

 19 19  0  0  0  0  0  0  0  0999 V2000
    5.7760    0.0000    0.0000 F   0  0  0  0  0  0  0  0  0  0  0  0
    4.2760    0.0000    0.0000 C   0  0  0  0  0  0  0  0  0  0  0  0
    4.2760    1.5000    0.0000 F   0  0  0  0  0  0  0  0  0  0  0  0
    4.2760   -1.5000    0.0000 F   0  0  0  0  0  0  0  0  0  0  0  0
    2.7760    0.0000    0.0000 C   0  0  0  0  0  0  0  0  0  0  0  0
    2.7760    1.5000    0.0000 F   0  0  0  0  0  0  0  0  0  0  0  0
    2.9588   -1.4888    0.0000 F   0  0  0  0  0  0  0  0  0  0  0  0
    1.2760    0.0000    0.0000 N   0  0  0  0  0  0  0  0  0  0  0  0
    0.3943    1.2135    0.0000 S   0  0  0  0  0  0  0  0  0  0  0  0
   -1.0323    0.7500    0.0000 S   0  0  0  0  0  0  0  0  0  0  0  0
   -1.0323   -0.7500    0.0000 S   0  0  0  0  0  0  0  0  0  0  0  0
    0.3943   -1.2135    0.0000 N   0  0  0  0  0  0  0  0  0  0  0  0
    0.8578   -2.6401    0.0000 C   0  0  0  0  0  0  0  0  0  0  0  0
   -0.5688   -3.1036    0.0000 F   0  0  0  0  0  0  0  0  0  0  0  0
    2.3303   -2.3539    0.0000 F   0  0  0  0  0  0  0  0  0  0  0  0
    1.3213   -4.0667    0.0000 C   0  0  0  0  0  0  0  0  0  0  0  0
    1.7849   -5.4933    0.0000 F   0  0  0  0  0  0  0  0  0  0  0  0
    2.7479   -3.6032    0.0000 F   0  0  0  0  0  0  0  0  0  0  0  0
   -0.1052   -4.5302    0.0000 F   0  0  0  0  0  0  0  0  0  0  0  0
  1  2  1  0
  2  3  1  0
  2  4  1  0
  2  5  1  0
  5  6  1  0
  5  7  1  0
  5  8  1  0
  8  9  1  0
  9 10  1  0
 10 11  1  0
 11 12  1  0
 12 13  1  0
 13 14  1  0
 13 15  1  0
 13 16  1  0
 16 17  1  0
 16 18  1  0
 16 19  1  0
 12  8  1  0
M  END
$$$$

     RDKit          2D

 19 19  0  0  0  0  0  0  0  0999 V2000
    4.2760    0.0000    0.0000 F   0  0  0  0  0  0  0  0  0  0  0  0
    2.7760    0.0000    0.0000 C   0  0  0  0  0  0  0  0  0  0  0  0
    2.7760   -1.5000    0.0000 F   0  0  0  0  0  0  0  0  0  0  0  0
    2.7760    1.5000    0.0000 F   0  0  0  0  0  0  0  0  0  0  0  0
    1.2760    0.0000    0.0000 N   0  0  0  0  0  0  0  0  0  0  0  0
    0.3943    1.2135    0.0000 C   0  0  0  0  0  0  0  0  0  0  0  0
   -0.2158    2.5838    0.0000 Br  0  0  0  0  0  0  0  0  0  0  0  0
    1.6933    1.9635    0.0000 Br  0  0  0  0  0  0  0  0  0  0  0  0
   -1.0323    0.7500    0.0000 N   0  0  0  0  0  0  0  0  0  0  0  0
   -2.2458    1.6317    0.0000 C   0  0  0  0  0  0  0  0  0  0  0  0
   -3.4593    2.5134    0.0000 F   0  0  0  0  0  0  0  0  0  0  0  0
   -1.3641    2.8452    0.0000 F   0  0  0  0  0  0  0  0  0  0  0  0
   -3.1275    0.4182    0.0000 F   0  0  0  0  0  0  0  0  0  0  0  0
   -1.0323   -0.7500    0.0000 C   0  0  0  0  0  0  0  0  0  0  0  0
   -1.3442   -2.2172    0.0000 F   0  0  0  0  0  0  0  0  0  0  0  0
   -2.5241   -0.5932    0.0000 F   0  0  0  0  0  0  0  0  0  0  0  0
    0.3943   -1.2135    0.0000 C   0  0  0  0  0  0  0  0  0  0  0  0
    1.6933   -1.9635    0.0000 F   0  0  0  0  0  0  0  0  0  0  0  0
   -0.2158   -2.5838    0.0000 F   0  0  0  0  0  0  0  0  0  0  0  0
  1  2  1  0
  2  3  1  0
  2  4  1  0
  2  5  1  0
  5  6  1  0
  6  7  1  0
  6  8  1  0
  6  9  1  0
  9 10  1  0
 10 11  1  0
 10 12  1  0
 10 13  1  0
  9 14  1  0
 14 15  1  0
 14 16  1  0
 14 17  1  0
 17 18  1  0
 17 19  1  0
 17  5  1  0
M  END
$$$$

     RDKit          2D

 15 15  0  0  0  0  0  0  0  0999 V2000
    3.0000    0.0000    0.0000 O   0  0  0  0  0  0  0  0  0  0  0  0
    1.5000    0.0000    0.0000 C   0  0  0  0  0  0  0  0  0  0  0  0
    0.7500   -1.2990    0.0000 C   0  0  0  0  0  0  0  0  0  0  0  0
   -0.7500   -1.2990    0.0000 C   0  0  0  0  0  0  0  0  0  0  0  0
   -1.5000    0.0000    0.0000 C   0  0  0  0  0  0  0  0  0  0  0  0
   -0.7500    1.2990    0.0000 C   0  0  0  0  0  0  0  0  0  0  0  0
    0.7500    1.2990    0.0000 C   0  0  0  0  0  0  0  0  0  0  0  0
    1.5000    2.5981    0.0000 S   0  0  0  0  0  0  0  0  0  0  0  0
    0.7500    3.8971    0.0000 C   0  0  0  0  0  0  0  0  0  0  0  0
    1.5000    5.1962    0.0000 C   0  0  0  0  0  0  0  0  0  0  0  0
    2.7990    4.4462    0.0000 F   0  0  0  0  0  0  0  0  0  0  0  0
    0.2010    5.9462    0.0000 F   0  0  0  0  0  0  0  0  0  0  0  0
    2.2500    6.4952    0.0000 C   0  0  0  0  0  0  0  0  0  0  0  0
    3.7500    6.4952    0.0000 F   0  0  0  0  0  0  0  0  0  0  0  0
    1.5000    7.7942    0.0000 F   0  0  0  0  0  0  0  0  0  0  0  0
  1  2  1  0
  2  3  2  0
  3  4  1  0
  4  5  2  0
  5  6  1  0
  6  7  2  0
  7  8  1  0
  8  9  1  0
  9 10  1  0
 10 11  1  0
 10 12  1  0
 10 13  1  0
 13 14  1  0
 13 15  1  0
  7  2  1  0
M  END
$$$$

     RDKit          2D

 30 30  0  0  0  0  0  0  0  0999 V2000
   14.7760    0.0000    0.0000 F   0  0  0  0  0  0  0  0  0  0  0  0
   13.2760    0.0000    0.0000 C   0  0  0  0  0  0  0  0  0  0  0  0
   13.2760    1.5000    0.0000 F   0  0  0  0  0  0  0  0  0  0  0  0
   13.2760   -1.5000    0.0000 F   0  0  0  0  0  0  0  0  0  0  0  0
   11.7760    0.0000    0.0000 C   0  0  0  0  0  0  0  0  0  0  0  0
   11.7760   -1.5000    0.0000 F   0  0  0  0  0  0  0  0  0  0  0  0
   11.7760    1.5000    0.0000 F   0  0  0  0  0  0  0  0  0  0  0  0
   10.2760    0.0000    0.0000 C   0  0  0  0  0  0  0  0  0  0  0  0
   10.2760    1.5000    0.0000 F   0  0  0  0  0  0  0  0  0  0  0  0
   10.2760   -1.5000    0.0000 F   0  0  0  0  0  0  0  0  0  0  0  0
    8.7760    0.0000    0.0000 C   0  0  0  0  0  0  0  0  0  0  0  0
    8.7760   -1.5000    0.0000 F   0  0  0  0  0  0  0  0  0  0  0  0
    8.7760    1.5000    0.0000 F   0  0  0  0  0  0  0  0  0  0  0  0
    7.2760    0.0000    0.0000 C   0  0  0  0  0  0  0  0  0  0  0  0
    7.2760    1.5000    0.0000 F   0  0  0  0  0  0  0  0  0  0  0  0
    7.2760   -1.5000    0.0000 F   0  0  0  0  0  0  0  0  0  0  0  0
    5.7760    0.0000    0.0000 C   0  0  0  0  0  0  0  0  0  0  0  0
    5.7760   -1.5000    0.0000 F   0  0  0  0  0  0  0  0  0  0  0  0
    5.7760    1.5000    0.0000 F   0  0  0  0  0  0  0  0  0  0  0  0
    4.2760    0.0000    0.0000 C   0  0  0  0  0  0  0  0  0  0  0  0
    4.2760    1.5000    0.0000 F   0  0  0  0  0  0  0  0  0  0  0  0
    4.2760   -1.5000    0.0000 F   0  0  0  0  0  0  0  0  0  0  0  0
    2.7760    0.0000    0.0000 C   0  0  0  0  0  0  0  0  0  0  0  0
    2.7760   -1.5000    0.0000 F   0  0  0  0  0  0  0  0  0  0  0  0
    2.7760    1.5000    0.0000 F   0  0  0  0  0  0  0  0  0  0  0  0
    1.2760    0.0000    0.0000 C   0  0  0  0  0  0  0  0  0  0  0  0
    0.3943    1.2135    0.0000 C   0  0  0  0  0  0  0  0  0  0  0  0
   -1.0323    0.7500    0.0000 N   0  0  0  0  0  0  0  0  0  0  0  0
   -1.0323   -0.7500    0.0000 N   0  0  0  0  0  0  0  0  0  0  0  0
    0.3943   -1.2135    0.0000 C   0  0  0  0  0  0  0  0  0  0  0  0
  1  2  1  0
  2  3  1  0
  2  4  1  0
  2  5  1  0
  5  6  1  0
  5  7  1  0
  5  8  1  0
  8  9  1  0
  8 10  1  0
  8 11  1  0
 11 12  1  0
 11 13  1  0
 11 14  1  0
 14 15  1  0
 14 16  1  0
 14 17  1  0
 17 18  1  0
 17 19  1  0
 17 20  1  0
 20 21  1  0
 20 22  1  0
 20 23  1  0
 23 24  1  0
 23 25  1  0
 23 26  1  0
 26 27  1  0
 27 28  2  0
 28 29  1  0
 29 30  1  0
 30 26  2  0
M  END
$$$$

     RDKit          2D

 23 23  0  0  0  0  0  0  0  0999 V2000
    6.0000    0.0000    0.0000 O   0  0  0  0  0  0  0  0  0  0  0  0
    5.2500   -1.2990    0.0000 C   0  0  0  0  0  0  0  0  0  0  0  0
    3.7500   -1.2990    0.0000 C   0  0  0  0  0  0  0  0  0  0  0  0
    3.0000    0.0000    0.0000 C   0  0  0  0  0  0  0  0  0  0  0  0
    1.5000    0.0000    0.0000 C   0  0  0  0  0  0  0  0  0  0  0  0
    0.7500   -1.2990    0.0000 C   0  0  0  0  0  0  0  0  0  0  0  0
   -0.7500   -1.2990    0.0000 C   0  0  0  0  0  0  0  0  0  0  0  0
   -1.5000    0.0000    0.0000 C   0  0  0  0  0  0  0  0  0  0  0  0
   -0.7500    1.2990    0.0000 C   0  0  0  0  0  0  0  0  0  0  0  0
    0.7500    1.2990    0.0000 C   0  0  0  0  0  0  0  0  0  0  0  0
    6.0000   -2.5981    0.0000 C   0  0  0  0  0  0  0  0  0  0  0  0
    7.2990   -1.8481    0.0000 F   0  0  0  0  0  0  0  0  0  0  0  0
    4.7010   -3.3481    0.0000 F   0  0  0  0  0  0  0  0  0  0  0  0
    6.7500   -3.8971    0.0000 C   0  0  0  0  0  0  0  0  0  0  0  0
    5.4510   -4.6471    0.0000 F   0  0  0  0  0  0  0  0  0  0  0  0
    8.0490   -3.1471    0.0000 F   0  0  0  0  0  0  0  0  0  0  0  0
    7.5000   -5.1962    0.0000 C   0  0  0  0  0  0  0  0  0  0  0  0
    8.7990   -4.4462    0.0000 F   0  0  0  0  0  0  0  0  0  0  0  0
    6.2010   -5.9462    0.0000 F   0  0  0  0  0  0  0  0  0  0  0  0
    8.2500   -6.4952    0.0000 C   0  0  0  0  0  0  0  0  0  0  0  0
    9.0000   -7.7942    0.0000 F   0  0  0  0  0  0  0  0  0  0  0  0
    6.9510   -7.2452    0.0000 F   0  0  0  0  0  0  0  0  0  0  0  0
    9.5490   -5.7452    0.0000 F   0  0  0  0  0  0  0  0  0  0  0  0
  1  2  2  0
  2  3  1  0
  3  4  1  0
  4  5  1  0
  5  6  2  0
  6  7  1  0
  7  8  2  0
  8  9  1  0
  9 10  2  0
  2 11  1  0
 11 12  1  0
 11 13  1  0
 11 14  1  0
 14 15  1  0
 14 16  1  0
 14 17  1  0
 17 18  1  0
 17 19  1  0
 17 20  1  0
 20 21  1  0
 20 22  1  0
 20 23  1  0
 10  5  1  0
M  END
$$$$

     RDKit          2D

  9  8  0  0  0  0  0  0  0  0999 V2000
   -1.2990    2.2500    0.0000 O   0  0  0  0  0  0  0  0  0  0  0  0
   -1.2990    0.7500    0.0000 N   0  0  0  0  0  0  0  0  0  0  0  0
   -2.5981    0.0000    0.0000 O   0  0  0  0  0  0  0  0  0  0  0  0
    0.0000    0.0000    0.0000 C   0  0  0  0  0  0  0  0  0  0  0  0
   -0.0000   -1.5000    0.0000 F   0  0  0  0  0  0  0  0  0  0  0  0
    1.2990    0.7500    0.0000 C   0  0  0  0  0  0  0  0  0  0  0  0
    2.5981    1.5000    0.0000 F   0  0  0  0  0  0  0  0  0  0  0  0
    2.0490   -0.5490    0.0000 F   0  0  0  0  0  0  0  0  0  0  0  0
    0.5490    2.0490    0.0000 F   0  0  0  0  0  0  0  0  0  0  0  0
  1  2  2  0
  2  3  1  0
  2  4  1  0
  4  5  1  0
  4  6  1  0
  6  7  1  0
  6  8  1  0
  6  9  1  0
M  CHG  2   2   1   3  -1
M  END
$$$$

     RDKit          2D

 17 17  0  0  0  0  0  0  0  0999 V2000
    3.0000    0.0000    0.0000 F   0  0  0  0  0  0  0  0  0  0  0  0
    1.5000    0.0000    0.0000 C   0  0  0  0  0  0  0  0  0  0  0  0
    0.7500   -1.2990    0.0000 C   0  0  0  0  0  0  0  0  0  0  0  0
   -0.7500   -1.2990    0.0000 C   0  0  0  0  0  0  0  0  0  0  0  0
   -1.5000    0.0000    0.0000 C   0  0  0  0  0  0  0  0  0  0  0  0
   -3.0000    0.0000    0.0000 C   0  0  0  0  0  0  0  0  0  0  0  0
   -3.0000   -1.5000    0.0000 Br  0  0  0  0  0  0  0  0  0  0  0  0
   -4.5000    0.0000    0.0000 C   0  0  0  0  0  0  0  0  0  0  0  0
   -6.0000   -0.0000    0.0000 F   0  0  0  0  0  0  0  0  0  0  0  0
   -4.5000   -1.5000    0.0000 F   0  0  0  0  0  0  0  0  0  0  0  0
   -4.6080    0.8791    0.0000 F   0  0  0  0  0  0  0  0  0  0  0  0
   -3.0000    1.5000    0.0000 C   0  0  0  0  0  0  0  0  0  0  0  0
   -3.0000    3.0000    0.0000 F   0  0  0  0  0  0  0  0  0  0  0  0
   -3.8791    1.6080    0.0000 F   0  0  0  0  0  0  0  0  0  0  0  0
   -1.5446    1.8630    0.0000 F   0  0  0  0  0  0  0  0  0  0  0  0
   -0.7500    1.2990    0.0000 C   0  0  0  0  0  0  0  0  0  0  0  0
    0.7500    1.2990    0.0000 C   0  0  0  0  0  0  0  0  0  0  0  0
  1  2  1  0
  2  3  2  0
  3  4  1  0
  4  5  2  0
  5  6  1  0
  6  7  1  0
  6  8  1  0
  8  9  1  0
  8 10  1  0
  8 11  1  0
  6 12  1  0
 12 13  1  0
 12 14  1  0
 12 15  1  0
  5 16  1  0
 16 17  2  0
 17  2  1  0
M  END
$$$$

     RDKit          2D

 18 18  0  0  0  0  0  0  0  0999 V2000
    6.3107    1.2990    0.0000 C   0  0  0  0  0  0  0  0  0  0  0  0
    4.8107    1.2990    0.0000 C   0  0  0  0  0  0  0  0  0  0  0  0
    4.0607    0.0000    0.0000 O   0  0  0  0  0  0  0  0  0  0  0  0
    2.5607    0.0000    0.0000 Si  0  0  0  0  0  4  0  0  0  0  0  0
    2.5607   -1.5000    0.0000 O   0  0  0  0  0  0  0  0  0  0  0  0
    3.8597   -2.2500    0.0000 C   0  0  0  0  0  0  0  0  0  0  0  0
    3.8597   -3.7500    0.0000 C   0  0  0  0  0  0  0  0  0  0  0  0
    2.5607    1.5000    0.0000 O   0  0  0  0  0  0  0  0  0  0  0  0
    3.8597    2.2500    0.0000 C   0  0  0  0  0  0  0  0  0  0  0  0
    3.8597    3.7500    0.0000 C   0  0  0  0  0  0  0  0  0  0  0  0
    1.0607    0.0000    0.0000 C   0  0  0  0  0  0  0  0  0  0  0  0
   -0.0000   -1.0607    0.0000 C   0  0  0  0  0  0  0  0  0  0  0  0
   -1.0607    0.0000    0.0000 C   0  0  0  0  0  0  0  0  0  0  0  0
   -2.1213   -1.0607    0.0000 F   0  0  0  0  0  0  0  0  0  0  0  0
   -2.1213    1.0607    0.0000 F   0  0  0  0  0  0  0  0  0  0  0  0
    0.0000    1.0607    0.0000 C   0  0  0  0  0  0  0  0  0  0  0  0
   -1.0607    2.1213    0.0000 F   0  0  0  0  0  0  0  0  0  0  0  0
    1.0607    2.1213    0.0000 F   0  0  0  0  0  0  0  0  0  0  0  0
  1  2  1  0
  2  3  1  0
  3  4  1  0
  4  5  1  0
  5  6  1  0
  6  7  1  0
  4  8  1  0
  8  9  1  0
  9 10  1  0
  4 11  1  0
 11 12  1  0
 12 13  1  0
 13 14  1  0
 13 15  1  0
 13 16  1  0
 16 17  1  0
 16 18  1  0
 16 11  1  0
M  END
$$$$

     RDKit          2D

 13 12  0  0  0  0  0  0  0  0999 V2000
    0.0000    0.0000    0.0000 C   0  0  0  0  0  0  0  0  0  0  0  0
    1.2990    0.7500    0.0000 C   0  0  0  0  0  0  0  0  0  0  0  0
    2.5981    1.5000    0.0000 C   0  0  0  0  0  0  0  0  0  0  0  0
    0.5490    2.0490    0.0000 O   0  0  0  0  0  0  0  0  0  0  0  0
    2.0490   -0.5490    0.0000 C   0  0  0  0  0  0  0  0  0  0  0  0
    3.3481    0.2010    0.0000 F   0  0  0  0  0  0  0  0  0  0  0  0
    0.7500   -1.2990    0.0000 F   0  0  0  0  0  0  0  0  0  0  0  0
    2.7990   -1.8481    0.0000 C   0  0  0  0  0  0  0  0  0  0  0  0
    4.2990   -1.8481    0.0000 F   0  0  0  0  0  0  0  0  0  0  0  0
    2.0490   -3.1471    0.0000 C   0  0  0  0  0  0  0  0  0  0  0  0
    1.2990   -4.4462    0.0000 F   0  0  0  0  0  0  0  0  0  0  0  0
    3.3481   -3.8971    0.0000 F   0  0  0  0  0  0  0  0  0  0  0  0
    0.7500   -2.3971    0.0000 F   0  0  0  0  0  0  0  0  0  0  0  0
  1  2  1  0
  2  3  1  0
  2  4  1  0
  2  5  1  0
  5  6  1  0
  5  7  1  0
  5  8  1  0
  8  9  1  0
  8 10  1  0
 10 11  1  0
 10 12  1  0
 10 13  1  0
M  END
$$$$

     RDKit          2D

 22 21  0  0  0  0  0  0  0  0999 V2000
    0.0000    0.0000    0.0000 C   0  0  0  0  0  0  0  0  0  0  0  0
    1.2990    0.7500    0.0000 N   0  0  0  0  0  0  0  0  0  0  0  0
    2.5981   -0.0000    0.0000 C   0  0  0  0  0  0  0  0  0  0  0  0
    1.2990    2.2500    0.0000 C   0  0  0  0  0  0  0  0  0  0  0  0
    2.5981    3.0000    0.0000 C   0  0  0  0  0  0  0  0  0  0  0  0
    1.8481    4.2990    0.0000 F   0  0  0  0  0  0  0  0  0  0  0  0
    3.3481    1.7010    0.0000 F   0  0  0  0  0  0  0  0  0  0  0  0
    3.8971    3.7500    0.0000 C   0  0  0  0  0  0  0  0  0  0  0  0
    4.6471    2.4510    0.0000 F   0  0  0  0  0  0  0  0  0  0  0  0
    3.1471    5.0490    0.0000 F   0  0  0  0  0  0  0  0  0  0  0  0
    5.1962    4.5000    0.0000 C   0  0  0  0  0  0  0  0  0  0  0  0
    4.4462    5.7990    0.0000 F   0  0  0  0  0  0  0  0  0  0  0  0
    5.9462    3.2010    0.0000 F   0  0  0  0  0  0  0  0  0  0  0  0
    6.4952    5.2500    0.0000 C   0  0  0  0  0  0  0  0  0  0  0  0
    5.7452    6.5490    0.0000 F   0  0  0  0  0  0  0  0  0  0  0  0
    7.2452    3.9510    0.0000 F   0  0  0  0  0  0  0  0  0  0  0  0
    7.7942    6.0000    0.0000 C   0  0  0  0  0  0  0  0  0  0  0  0
    8.5442    4.7010    0.0000 F   0  0  0  0  0  0  0  0  0  0  0  0
    7.0442    7.2990    0.0000 F   0  0  0  0  0  0  0  0  0  0  0  0
    9.0933    6.7500    0.0000 C   0  0  0  0  0  0  0  0  0  0  0  0
   10.3923    6.0000    0.0000 F   0  0  0  0  0  0  0  0  0  0  0  0
    9.0933    8.2500    0.0000 F   0  0  0  0  0  0  0  0  0  0  0  0
  1  2  1  0
  2  3  1  0
  2  4  1  0
  4  5  1  0
  5  6  1  0
  5  7  1  0
  5  8  1  0
  8  9  1  0
  8 10  1  0
  8 11  1  0
 11 12  1  0
 11 13  1  0
 11 14  1  0
 14 15  1  0
 14 16  1  0
 14 17  1  0
 17 18  1  0
 17 19  1  0
 17 20  1  0
 20 21  1  0
 20 22  1  0
M  END
$$$$

     RDKit          2D

 30 29  0  0  0  0  0  0  0  0999 V2000
   -1.5000    0.0000    0.0000 F   0  0  0  0  0  0  0  0  0  0  0  0
    0.0000    0.0000    0.0000 C   0  0  0  0  0  0  0  0  0  0  0  0
    0.0000    1.5000    0.0000 F   0  0  0  0  0  0  0  0  0  0  0  0
   -0.0000   -1.5000    0.0000 F   0  0  0  0  0  0  0  0  0  0  0  0
    1.5000    0.0000    0.0000 O   0  0  0  0  0  0  0  0  0  0  0  0
    2.2500   -1.2990    0.0000 C   0  0  0  0  0  0  0  0  0  0  0  0
    0.9510   -2.0490    0.0000 F   0  0  0  0  0  0  0  0  0  0  0  0
    3.5490   -0.5490    0.0000 F   0  0  0  0  0  0  0  0  0  0  0  0
    3.0000   -2.5981    0.0000 C   0  0  0  0  0  0  0  0  0  0  0  0
    1.7010   -3.3481    0.0000 F   0  0  0  0  0  0  0  0  0  0  0  0
    4.2990   -1.8481    0.0000 F   0  0  0  0  0  0  0  0  0  0  0  0
    3.7500   -3.8971    0.0000 O   0  0  0  0  0  0  0  0  0  0  0  0
    5.2500   -3.8971    0.0000 C   0  0  0  0  0  0  0  0  0  0  0  0
    5.2500   -2.3971    0.0000 F   0  0  0  0  0  0  0  0  0  0  0  0
    5.2500   -5.3971    0.0000 F   0  0  0  0  0  0  0  0  0  0  0  0
    6.7500   -3.8971    0.0000 C   0  0  0  0  0  0  0  0  0  0  0  0
    6.7500   -2.3971    0.0000 F   0  0  0  0  0  0  0  0  0  0  0  0
    6.7500   -5.3971    0.0000 F   0  0  0  0  0  0  0  0  0  0  0  0
    8.2500   -3.8971    0.0000 O   0  0  0  0  0  0  0  0  0  0  0  0
    9.0000   -5.1962    0.0000 C   0  0  0  0  0  0  0  0  0  0  0  0
    7.7010   -5.9462    0.0000 F   0  0  0  0  0  0  0  0  0  0  0  0
   10.2990   -4.4462    0.0000 F   0  0  0  0  0  0  0  0  0  0  0  0
    9.7500   -6.4952    0.0000 C   0  0  0  0  0  0  0  0  0  0  0  0
    8.4510   -7.2452    0.0000 F   0  0  0  0  0  0  0  0  0  0  0  0
   11.0490   -5.7452    0.0000 F   0  0  0  0  0  0  0  0  0  0  0  0
   10.5000   -7.7942    0.0000 O   0  0  0  0  0  0  0  0  0  0  0  0
   12.0000   -7.7942    0.0000 C   0  0  0  0  0  0  0  0  0  0  0  0
   13.5000   -7.7942    0.0000 F   0  0  0  0  0  0  0  0  0  0  0  0
   12.0000   -9.2942    0.0000 F   0  0  0  0  0  0  0  0  0  0  0  0
   12.0000   -6.2942    0.0000 F   0  0  0  0  0  0  0  0  0  0  0  0
  1  2  1  0
  2  3  1  0
  2  4  1  0
  2  5  1  0
  5  6  1  0
  6  7  1  0
  6  8  1  0
  6  9  1  0
  9 10  1  0
  9 11  1  0
  9 12  1  0
 12 13  1  0
 13 14  1  0
 13 15  1  0
 13 16  1  0
 16 17  1  0
 16 18  1  0
 16 19  1  0
 19 20  1  0
 20 21  1  0
 20 22  1  0
 20 23  1  0
 23 24  1  0
 23 25  1  0
 23 26  1  0
 26 27  1  0
 27 28  1  0
 27 29  1  0
 27 30  1  0
M  END
$$$$

     RDKit          2D

 24 23  0  0  0  0  0  0  0  0999 V2000
    4.5000   -0.0000    0.0000 F   0  0  0  0  0  0  0  0  0  0  0  0
    3.0000   -0.0000    0.0000 C   0  0  0  0  0  0  0  0  0  0  0  0
    3.0000    1.5000    0.0000 F   0  0  0  0  0  0  0  0  0  0  0  0
    3.2857   -0.7442    0.0000 F   0  0  0  0  0  0  0  0  0  0  0  0
    1.5000    0.0000    0.0000 C   0  0  0  0  0  0  0  0  0  0  0  0
    1.5000    1.5000    0.0000 F   0  0  0  0  0  0  0  0  0  0  0  0
    1.5000   -1.5000    0.0000 O   0  0  0  0  0  0  0  0  0  0  0  0
    2.7990   -2.2500    0.0000 C   0  0  0  0  0  0  0  0  0  0  0  0
    3.2788   -1.6134    0.0000 F   0  0  0  0  0  0  0  0  0  0  0  0
    2.0490   -3.5490    0.0000 F   0  0  0  0  0  0  0  0  0  0  0  0
    4.0981   -3.0000    0.0000 C   0  0  0  0  0  0  0  0  0  0  0  0
    4.8481   -1.7010    0.0000 F   0  0  0  0  0  0  0  0  0  0  0  0
    3.3481   -4.2990    0.0000 F   0  0  0  0  0  0  0  0  0  0  0  0
    5.3971   -3.7500    0.0000 C   0  0  0  0  0  0  0  0  0  0  0  0
    6.1471   -2.4510    0.0000 F   0  0  0  0  0  0  0  0  0  0  0  0
    4.6471   -5.0490    0.0000 F   0  0  0  0  0  0  0  0  0  0  0  0
    6.6962   -4.5000    0.0000 C   0  0  0  0  0  0  0  0  0  0  0  0
    7.9952   -5.2500    0.0000 F   0  0  0  0  0  0  0  0  0  0  0  0
    5.9462   -5.7990    0.0000 F   0  0  0  0  0  0  0  0  0  0  0  0
    7.4462   -3.2010    0.0000 I   0  0  0  0  0  0  0  0  0  0  0  0
    0.0000    0.0000    0.0000 C   0  0  0  0  0  0  0  0  0  0  0  0
   -1.5000    0.0000    0.0000 F   0  0  0  0  0  0  0  0  0  0  0  0
    0.0000    1.5000    0.0000 F   0  0  0  0  0  0  0  0  0  0  0  0
   -0.0000   -1.5000    0.0000 F   0  0  0  0  0  0  0  0  0  0  0  0
  1  2  1  0
  2  3  1  0
  2  4  1  0
  2  5  1  0
  5  6  1  0
  5  7  1  0
  7  8  1  0
  8  9  1  0
  8 10  1  0
  8 11  1  0
 11 12  1  0
 11 13  1  0
 11 14  1  0
 14 15  1  0
 14 16  1  0
 14 17  1  0
 17 18  1  0
 17 19  1  0
 17 20  1  0
  5 21  1  0
 21 22  1  0
 21 23  1  0
 21 24  1  0
M  END
$$$$

     RDKit          2D

 14 13  0  0  0  0  0  0  0  0999 V2000
   -1.5000    0.0000    0.0000 F   0  0  0  0  0  0  0  0  0  0  0  0
    0.0000    0.0000    0.0000 C   0  0  0  0  0  0  0  0  0  0  0  0
    0.0000    1.5000    0.0000 F   0  0  0  0  0  0  0  0  0  0  0  0
   -0.0000   -1.5000    0.0000 F   0  0  0  0  0  0  0  0  0  0  0  0
    1.5000    0.0000    0.0000 C   0  0  0  0  0  0  0  0  0  0  0  0
    1.5000    1.5000    0.0000 F   0  0  0  0  0  0  0  0  0  0  0  0
    1.5000   -1.5000    0.0000 F   0  0  0  0  0  0  0  0  0  0  0  0
    3.0000    0.0000    0.0000 C   0  0  0  0  0  0  0  0  0  0  0  0
    3.0000    1.5000    0.0000 F   0  0  0  0  0  0  0  0  0  0  0  0
    3.0000   -1.5000    0.0000 F   0  0  0  0  0  0  0  0  0  0  0  0
    4.5000    0.0000    0.0000 C   0  0  0  0  0  0  0  0  0  0  0  0
    6.0000    0.0000    0.0000 F   0  0  0  0  0  0  0  0  0  0  0  0
    4.5000   -1.5000    0.0000 F   0  0  0  0  0  0  0  0  0  0  0  0
    4.5000    1.5000    0.0000 Cu  0  0  0  0  0  1  0  0  0  0  0  0
  1  2  1  0
  2  3  1  0
  2  4  1  0
  2  5  1  0
  5  6  1  0
  5  7  1  0
  5  8  1  0
  8  9  1  0
  8 10  1  0
  8 11  1  0
 11 12  1  0
 11 13  1  0
 11 14  1  0
M  END
$$$$

     RDKit          2D

 10  9  0  0  0  0  0  0  0  0999 V2000
   -1.2990    0.7500    0.0000 F   0  0  0  0  0  0  0  0  0  0  0  0
    0.0000    0.0000    0.0000 C   0  0  0  0  0  0  0  0  0  0  0  0
   -0.0000   -1.5000    0.0000 F   0  0  0  0  0  0  0  0  0  0  0  0
    1.2990    0.7500    0.0000 C   0  0  0  0  0  0  0  0  0  0  0  0
    2.0490   -0.5490    0.0000 F   0  0  0  0  0  0  0  0  0  0  0  0
    0.5490    2.0490    0.0000 F   0  0  0  0  0  0  0  0  0  0  0  0
    2.5981    1.5000    0.0000 C   0  0  0  0  0  0  0  0  0  0  0  0
    3.8971    2.2500    0.0000 F   0  0  0  0  0  0  0  0  0  0  0  0
    1.8481    2.7990    0.0000 F   0  0  0  0  0  0  0  0  0  0  0  0
    3.3481    0.2010    0.0000 I   0  0  0  0  0  0  0  0  0  0  0  0
  1  2  1  0
  2  3  1  0
  2  4  1  0
  4  5  1  0
  4  6  1  0
  4  7  1  0
  7  8  1  0
  7  9  1  0
  7 10  1  0
M  END
$$$$

     RDKit          2D

 14 13  0  0  0  0  0  0  0  0999 V2000
   -1.2990   -2.2500    0.0000 O   0  0  0  0  0  0  0  0  0  0  0  0
   -0.0000   -1.5000    0.0000 C   0  0  0  0  0  0  0  0  0  0  0  0
    1.2990   -2.2500    0.0000 O   0  0  0  0  0  0  0  0  0  0  0  0
    0.0000    0.0000    0.0000 C   0  0  0  0  0  0  0  0  0  0  0  0
    0.0000    1.5000    0.0000 C   0  0  0  0  0  0  0  0  0  0  0  0
    0.0000    3.0000    0.0000 C   0  0  0  0  0  0  0  0  0  0  0  0
   -1.5000    3.0000    0.0000 F   0  0  0  0  0  0  0  0  0  0  0  0
    1.5000    3.0000    0.0000 F   0  0  0  0  0  0  0  0  0  0  0  0
    0.0000    4.5000    0.0000 C   0  0  0  0  0  0  0  0  0  0  0  0
   -1.5000    4.5000    0.0000 F   0  0  0  0  0  0  0  0  0  0  0  0
    1.5000    4.5000    0.0000 F   0  0  0  0  0  0  0  0  0  0  0  0
    0.0000    6.0000    0.0000 C   0  0  0  0  0  0  0  0  0  0  0  0
   -1.2990    6.7500    0.0000 F   0  0  0  0  0  0  0  0  0  0  0  0
    1.2990    6.7500    0.0000 F   0  0  0  0  0  0  0  0  0  0  0  0
  1  2  2  0
  2  3  1  0
  2  4  1  0
  4  5  3  0
  5  6  1  0
  6  7  1  0
  6  8  1  0
  6  9  1  0
  9 10  1  0
  9 11  1  0
  9 12  1  0
 12 13  1  0
 12 14  1  0
M  END
$$$$

     RDKit          2D

  9 10  0  0  0  0  0  0  0  0999 V2000
   -3.4330    0.7500    0.0000 F   0  0  0  0  0  0  0  0  0  0  0  0
   -1.9330    0.7500    0.0000 C   0  0  0  0  0  0  0  0  0  0  0  0
   -1.9330    2.2500    0.0000 F   0  0  0  0  0  0  0  0  0  0  0  0
   -0.4330    0.7500    0.0000 C   0  0  0  0  0  0  0  0  0  0  0  0
    0.8660    0.0000    0.0000 C   0  0  0  0  0  0  0  0  0  0  0  0
   -0.4330   -0.7500    0.0000 C   0  0  0  0  0  0  0  0  0  0  0  0
   -1.9330   -0.7500    0.0000 C   0  0  0  0  0  0  0  0  0  0  0  0
   -1.9330   -2.2500    0.0000 F   0  0  0  0  0  0  0  0  0  0  0  0
   -3.4330   -0.7500    0.0000 F   0  0  0  0  0  0  0  0  0  0  0  0
  1  2  1  0
  2  3  1  0
  2  4  1  0
  4  5  1  0
  5  6  1  0
  6  7  1  0
  7  8  1  0
  7  9  1  0
  7  2  1  0
  6  4  1  0
M  END
$$$$

     RDKit          2D

 14 13  0  0  0  0  0  0  0  0999 V2000
    0.0000    0.0000    0.0000 C   0  0  0  0  0  0  0  0  0  0  0  0
    1.2990    0.7500    0.0000 C   0  0  0  0  0  0  0  0  0  0  0  0
    2.5981   -0.0000    0.0000 O   0  0  0  0  0  0  0  0  0  0  0  0
    3.8971    0.7500    0.0000 C   0  0  0  0  0  0  0  0  0  0  0  0
    3.8971    2.2500    0.0000 O   0  0  0  0  0  0  0  0  0  0  0  0
    5.1962   -0.0000    0.0000 C   0  0  0  0  0  0  0  0  0  0  0  0
    5.9462    1.2990    0.0000 F   0  0  0  0  0  0  0  0  0  0  0  0
    4.4462   -1.2990    0.0000 F   0  0  0  0  0  0  0  0  0  0  0  0
    6.4952   -0.7500    0.0000 C   0  0  0  0  0  0  0  0  0  0  0  0
    7.2452    0.5490    0.0000 F   0  0  0  0  0  0  0  0  0  0  0  0
    5.7452   -2.0490    0.0000 F   0  0  0  0  0  0  0  0  0  0  0  0
    7.7942   -1.5000    0.0000 C   0  0  0  0  0  0  0  0  0  0  0  0
    9.0933   -0.7500    0.0000 O   0  0  0  0  0  0  0  0  0  0  0  0
    7.7942   -3.0000    0.0000 F   0  0  0  0  0  0  0  0  0  0  0  0
  1  2  1  0
  2  3  1  0
  3  4  1  0
  4  5  2  0
  4  6  1  0
  6  7  1  0
  6  8  1  0
  6  9  1  0
  9 10  1  0
  9 11  1  0
  9 12  1  0
 12 13  2  0
 12 14  1  0
M  END
$$$$

     RDKit          2D

 31 30  0  0  0  0  0  0  0  0999 V2000
   -1.2990    0.7500    0.0000 O   0  0  0  0  0  0  0  0  0  0  0  0
    0.0000    0.0000    0.0000 C   0  0  0  0  0  0  0  0  0  0  0  0
    1.2990    0.7500    0.0000 C   0  0  0  0  0  0  0  0  0  0  0  0
    2.5981   -0.0000    0.0000 C   0  0  0  0  0  0  0  0  0  0  0  0
    3.3481    1.2990    0.0000 F   0  0  0  0  0  0  0  0  0  0  0  0
    1.8481   -1.2990    0.0000 F   0  0  0  0  0  0  0  0  0  0  0  0
    3.8971   -0.7500    0.0000 C   0  0  0  0  0  0  0  0  0  0  0  0
    3.1471   -2.0490    0.0000 F   0  0  0  0  0  0  0  0  0  0  0  0
    4.6471    0.5490    0.0000 F   0  0  0  0  0  0  0  0  0  0  0  0
    5.1962   -1.5000    0.0000 C   0  0  0  0  0  0  0  0  0  0  0  0
    5.9462   -0.2010    0.0000 F   0  0  0  0  0  0  0  0  0  0  0  0
    4.4462   -2.7990    0.0000 F   0  0  0  0  0  0  0  0  0  0  0  0
    6.4952   -2.2500    0.0000 C   0  0  0  0  0  0  0  0  0  0  0  0
    5.7452   -3.5490    0.0000 F   0  0  0  0  0  0  0  0  0  0  0  0
    7.2452   -0.9510    0.0000 F   0  0  0  0  0  0  0  0  0  0  0  0
    7.7942   -3.0000    0.0000 C   0  0  0  0  0  0  0  0  0  0  0  0
    8.5442   -1.7010    0.0000 F   0  0  0  0  0  0  0  0  0  0  0  0
    7.0442   -4.2990    0.0000 F   0  0  0  0  0  0  0  0  0  0  0  0
    9.0933   -3.7500    0.0000 C   0  0  0  0  0  0  0  0  0  0  0  0
    8.3433   -5.0490    0.0000 F   0  0  0  0  0  0  0  0  0  0  0  0
    9.8433   -2.4510    0.0000 F   0  0  0  0  0  0  0  0  0  0  0  0
   10.3923   -4.5000    0.0000 C   0  0  0  0  0  0  0  0  0  0  0  0
   11.1423   -3.2010    0.0000 F   0  0  0  0  0  0  0  0  0  0  0  0
    9.6423   -5.7990    0.0000 F   0  0  0  0  0  0  0  0  0  0  0  0
   11.6913   -5.2500    0.0000 C   0  0  0  0  0  0  0  0  0  0  0  0
   10.9413   -6.5490    0.0000 F   0  0  0  0  0  0  0  0  0  0  0  0
   12.4413   -3.9510    0.0000 F   0  0  0  0  0  0  0  0  0  0  0  0
   12.9904   -6.0000    0.0000 C   0  0  0  0  0  0  0  0  0  0  0  0
   14.2894   -6.7500    0.0000 F   0  0  0  0  0  0  0  0  0  0  0  0
   13.7404   -4.7010    0.0000 F   0  0  0  0  0  0  0  0  0  0  0  0
   12.2404   -7.2990    0.0000 F   0  0  0  0  0  0  0  0  0  0  0  0
  1  2  1  0
  2  3  1  0
  3  4  1  0
  4  5  1  0
  4  6  1  0
  4  7  1  0
  7  8  1  0
  7  9  1  0
  7 10  1  0
 10 11  1  0
 10 12  1  0
 10 13  1  0
 13 14  1  0
 13 15  1  0
 13 16  1  0
 16 17  1  0
 16 18  1  0
 16 19  1  0
 19 20  1  0
 19 21  1  0
 19 22  1  0
 22 23  1  0
 22 24  1  0
 22 25  1  0
 25 26  1  0
 25 27  1  0
 25 28  1  0
 28 29  1  0
 28 30  1  0
 28 31  1  0
M  END
$$$$

     RDKit          2D

 25 24  0  0  0  0  0  0  0  0999 V2000
    0.0000    0.0000    0.0000 C   0  0  0  0  0  0  0  0  0  0  0  0
    1.2990    0.7500    0.0000 O   0  0  0  0  0  0  0  0  0  0  0  0
    2.5981   -0.0000    0.0000 C   0  0  0  0  0  0  0  0  0  0  0  0
    2.5981   -1.5000    0.0000 O   0  0  0  0  0  0  0  0  0  0  0  0
    3.8971    0.7500    0.0000 C   0  0  0  0  0  0  0  0  0  0  0  0
    5.1962   -0.0000    0.0000 C   0  0  0  0  0  0  0  0  0  0  0  0
    6.4952    0.7500    0.0000 C   0  0  0  0  0  0  0  0  0  0  0  0
    7.2452   -0.5490    0.0000 F   0  0  0  0  0  0  0  0  0  0  0  0
    5.7452    2.0490    0.0000 F   0  0  0  0  0  0  0  0  0  0  0  0
    7.7942    1.5000    0.0000 C   0  0  0  0  0  0  0  0  0  0  0  0
    7.0442    2.7990    0.0000 F   0  0  0  0  0  0  0  0  0  0  0  0
    8.5442    0.2010    0.0000 F   0  0  0  0  0  0  0  0  0  0  0  0
    9.0933    2.2500    0.0000 C   0  0  0  0  0  0  0  0  0  0  0  0
    9.8433    0.9510    0.0000 F   0  0  0  0  0  0  0  0  0  0  0  0
    8.3433    3.5490    0.0000 F   0  0  0  0  0  0  0  0  0  0  0  0
   10.3923    3.0000    0.0000 C   0  0  0  0  0  0  0  0  0  0  0  0
    9.6423    4.2990    0.0000 F   0  0  0  0  0  0  0  0  0  0  0  0
   11.1423    1.7010    0.0000 F   0  0  0  0  0  0  0  0  0  0  0  0
   11.6913    3.7500    0.0000 C   0  0  0  0  0  0  0  0  0  0  0  0
   12.4413    2.4510    0.0000 F   0  0  0  0  0  0  0  0  0  0  0  0
   10.9413    5.0490    0.0000 F   0  0  0  0  0  0  0  0  0  0  0  0
   12.9904    4.5000    0.0000 C   0  0  0  0  0  0  0  0  0  0  0  0
   14.2894    5.2500    0.0000 F   0  0  0  0  0  0  0  0  0  0  0  0
   12.2404    5.7990    0.0000 F   0  0  0  0  0  0  0  0  0  0  0  0
   13.7404    3.2010    0.0000 F   0  0  0  0  0  0  0  0  0  0  0  0
  1  2  1  0
  2  3  1  0
  3  4  2  0
  3  5  1  0
  5  6  1  0
  6  7  1  0
  7  8  1  0
  7  9  1  0
  7 10  1  0
 10 11  1  0
 10 12  1  0
 10 13  1  0
 13 14  1  0
 13 15  1  0
 13 16  1  0
 16 17  1  0
 16 18  1  0
 16 19  1  0
 19 20  1  0
 19 21  1  0
 19 22  1  0
 22 23  1  0
 22 24  1  0
 22 25  1  0
M  END
$$$$

     RDKit          2D

 17 18  0  0  0  0  0  0  0  0999 V2000
    2.3907    1.0037    0.0000 F   0  0  0  0  0  0  0  0  0  0  0  0
    1.2760    0.0000    0.0000 C   0  0  0  0  0  0  0  0  0  0  0  0
    2.3907   -1.0037    0.0000 F   0  0  0  0  0  0  0  0  0  0  0  0
    0.3943    1.2135    0.0000 O   0  0  0  0  0  0  0  0  0  0  0  0
   -1.0323    0.7500    0.0000 C   0  0  0  0  0  0  0  0  0  0  0  0
   -1.0323   -0.7500    0.0000 O   0  0  0  0  0  0  0  0  0  0  0  0
    0.3943   -1.2135    0.0000 C   0  0  0  0  0  0  0  0  0  0  0  0
    1.6933   -1.9635    0.0000 F   0  0  0  0  0  0  0  0  0  0  0  0
   -0.2158   -2.5838    0.0000 F   0  0  0  0  0  0  0  0  0  0  0  0
   -2.4589    0.2865    0.0000 O   0  0  0  0  0  0  0  0  0  0  0  0
   -3.3405    1.5000    0.0000 C   0  0  0  0  0  0  0  0  0  0  0  0
   -4.4553    0.4963    0.0000 F   0  0  0  0  0  0  0  0  0  0  0  0
   -4.4553    2.5037    0.0000 F   0  0  0  0  0  0  0  0  0  0  0  0
   -2.4589    2.7135    0.0000 C   0  0  0  0  0  0  0  0  0  0  0  0
   -3.7579    3.4635    0.0000 F   0  0  0  0  0  0  0  0  0  0  0  0
   -1.8488    4.0838    0.0000 F   0  0  0  0  0  0  0  0  0  0  0  0
   -1.0323    2.2500    0.0000 O   0  0  0  0  0  0  0  0  0  0  0  0
  1  2  1  0
  2  3  1  0
  2  4  1  0
  4  5  1  0
  5  6  1  0
  6  7  1  0
  7  8  1  0
  7  9  1  0
  5 10  1  0
 10 11  1  0
 11 12  1  0
 11 13  1  0
 11 14  1  0
 14 15  1  0
 14 16  1  0
 14 17  1  0
  7  2  1  0
 17  5  1  0
M  END
$$$$

     RDKit          2D

 23 22  0  0  0  0  0  0  0  0999 V2000
    0.0000    0.0000    0.0000 C   0  0  0  0  0  0  0  0  0  0  0  0
    1.2990    0.7500    0.0000 C   0  0  0  0  0  0  0  0  0  0  0  0
    2.5981   -0.0000    0.0000 C   0  0  0  0  0  0  0  0  0  0  0  0
    3.8971    0.7500    0.0000 O   0  0  0  0  0  0  0  0  0  0  0  0
    5.1962   -0.0000    0.0000 C   0  0  0  0  0  0  0  0  0  0  0  0
    6.4952    0.7500    0.0000 C   0  0  0  0  0  0  0  0  0  0  0  0
    7.2452   -0.5490    0.0000 F   0  0  0  0  0  0  0  0  0  0  0  0
    5.7452    2.0490    0.0000 F   0  0  0  0  0  0  0  0  0  0  0  0
    7.7942    1.5000    0.0000 C   0  0  0  0  0  0  0  0  0  0  0  0
    7.0442    2.7990    0.0000 F   0  0  0  0  0  0  0  0  0  0  0  0
    8.5442    0.2010    0.0000 F   0  0  0  0  0  0  0  0  0  0  0  0
    9.0933    2.2500    0.0000 C   0  0  0  0  0  0  0  0  0  0  0  0
    9.8433    0.9510    0.0000 F   0  0  0  0  0  0  0  0  0  0  0  0
    8.3433    3.5490    0.0000 F   0  0  0  0  0  0  0  0  0  0  0  0
   10.3923    3.0000    0.0000 C   0  0  0  0  0  0  0  0  0  0  0  0
   11.1423    1.7010    0.0000 F   0  0  0  0  0  0  0  0  0  0  0  0
    9.6423    4.2990    0.0000 F   0  0  0  0  0  0  0  0  0  0  0  0
   11.6913    3.7500    0.0000 C   0  0  0  0  0  0  0  0  0  0  0  0
   10.9413    5.0490    0.0000 F   0  0  0  0  0  0  0  0  0  0  0  0
   12.4413    2.4510    0.0000 F   0  0  0  0  0  0  0  0  0  0  0  0
   12.9904    4.5000    0.0000 C   0  0  0  0  0  0  0  0  0  0  0  0
   12.9904    6.0000    0.0000 F   0  0  0  0  0  0  0  0  0  0  0  0
   14.2894    3.7500    0.0000 F   0  0  0  0  0  0  0  0  0  0  0  0
  1  2  2  0
  2  3  1  0
  3  4  1  0
  4  5  1  0
  5  6  1  0
  6  7  1  0
  6  8  1  0
  6  9  1  0
  9 10  1  0
  9 11  1  0
  9 12  1  0
 12 13  1  0
 12 14  1  0
 12 15  1  0
 15 16  1  0
 15 17  1  0
 15 18  1  0
 18 19  1  0
 18 20  1  0
 18 21  1  0
 21 22  1  0
 21 23  1  0
M  END
$$$$

     RDKit          2D

 14 14  0  0  0  0  0  0  0  0999 V2000
    7.5000    0.0000    0.0000 F   0  0  0  0  0  0  0  0  0  0  0  0
    6.7500   -1.2990    0.0000 C   0  0  0  0  0  0  0  0  0  0  0  0
    7.5000   -2.5981    0.0000 F   0  0  0  0  0  0  0  0  0  0  0  0
    5.2500   -1.2990    0.0000 C   0  0  0  0  0  0  0  0  0  0  0  0
    5.2500    0.2010    0.0000 F   0  0  0  0  0  0  0  0  0  0  0  0
    5.2500   -2.7990    0.0000 F   0  0  0  0  0  0  0  0  0  0  0  0
    3.7500   -1.2990    0.0000 O   0  0  0  0  0  0  0  0  0  0  0  0
    3.0000    0.0000    0.0000 C   0  0  0  0  0  0  0  0  0  0  0  0
    1.5000    0.0000    0.0000 C   0  0  0  0  0  0  0  0  0  0  0  0
    0.7500   -1.2990    0.0000 C   0  0  0  0  0  0  0  0  0  0  0  0
   -0.7500   -1.2990    0.0000 C   0  0  0  0  0  0  0  0  0  0  0  0
   -1.5000    0.0000    0.0000 C   0  0  0  0  0  0  0  0  0  0  0  0
   -0.7500    1.2990    0.0000 C   0  0  0  0  0  0  0  0  0  0  0  0
    0.7500    1.2990    0.0000 C   0  0  0  0  0  0  0  0  0  0  0  0
  1  2  1  0
  2  3  1  0
  2  4  1  0
  4  5  1  0
  4  6  1  0
  4  7  1  0
  7  8  1  0
  8  9  1  0
  9 10  2  0
 10 11  1  0
 11 12  2  0
 12 13  1  0
 13 14  2  0
 14  9  1  0
M  END
$$$$

     RDKit          2D

 18 17  0  0  0  0  0  0  0  0999 V2000
   -1.5000    0.0000    0.0000 F   0  0  0  0  0  0  0  0  0  0  0  0
    0.0000    0.0000    0.0000 C   0  0  0  0  0  0  0  0  0  0  0  0
    0.0000    1.5000    0.0000 F   0  0  0  0  0  0  0  0  0  0  0  0
   -0.0000   -1.5000    0.0000 F   0  0  0  0  0  0  0  0  0  0  0  0
    1.5000    0.0000    0.0000 O   0  0  0  0  0  0  0  0  0  0  0  0
    2.2500   -1.2990    0.0000 C   0  0  0  0  0  0  0  0  0  0  0  0
    1.4347   -1.6451    0.0000 F   0  0  0  0  0  0  0  0  0  0  0  0
    3.5490   -0.5490    0.0000 F   0  0  0  0  0  0  0  0  0  0  0  0
    3.0000   -2.5981    0.0000 C   0  0  0  0  0  0  0  0  0  0  0  0
    4.2990   -1.8481    0.0000 F   0  0  0  0  0  0  0  0  0  0  0  0
    3.7500   -3.8971    0.0000 C   0  0  0  0  0  0  0  0  0  0  0  0
    4.5000   -5.1962    0.0000 F   0  0  0  0  0  0  0  0  0  0  0  0
    5.0490   -3.1471    0.0000 F   0  0  0  0  0  0  0  0  0  0  0  0
    3.0426   -4.4302    0.0000 F   0  0  0  0  0  0  0  0  0  0  0  0
    1.7010   -3.3481    0.0000 C   0  0  0  0  0  0  0  0  0  0  0  0
    0.4019   -4.0981    0.0000 F   0  0  0  0  0  0  0  0  0  0  0  0
    2.0470   -4.1634    0.0000 F   0  0  0  0  0  0  0  0  0  0  0  0
    1.1679   -2.6407    0.0000 F   0  0  0  0  0  0  0  0  0  0  0  0
  1  2  1  0
  2  3  1  0
  2  4  1  0
  2  5  1  0
  5  6  1  0
  6  7  1  0
  6  8  1  0
  6  9  1  0
  9 10  1  0
  9 11  1  0
 11 12  1  0
 11 13  1  0
 11 14  1  0
  9 15  1  0
 15 16  1  0
 15 17  1  0
 15 18  1  0
M  END
$$$$

     RDKit          2D

 14 13  0  0  0  0  0  0  0  0999 V2000
    0.0000    0.0000    0.0000 C   0  0  0  0  0  0  0  0  0  0  0  0
    1.2990    0.7500    0.0000 C   0  0  0  0  0  0  0  0  0  0  0  0
    2.5981   -0.0000    0.0000 C   0  0  0  0  0  0  0  0  0  0  0  0
    3.8971    0.7500    0.0000 C   0  0  0  0  0  0  0  0  0  0  0  0
    5.1962   -0.0000    0.0000 C   0  0  0  0  0  0  0  0  0  0  0  0
    5.1962   -1.5000    0.0000 I   0  0  0  0  0  0  0  0  0  0  0  0
    6.4952    0.7500    0.0000 C   0  0  0  0  0  0  0  0  0  0  0  0
    7.7942   -0.0000    0.0000 C   0  0  0  0  0  0  0  0  0  0  0  0
    8.5442    1.2990    0.0000 F   0  0  0  0  0  0  0  0  0  0  0  0
    7.0442   -1.2990    0.0000 F   0  0  0  0  0  0  0  0  0  0  0  0
    9.0933   -0.7500    0.0000 C   0  0  0  0  0  0  0  0  0  0  0  0
   10.3923   -1.5000    0.0000 F   0  0  0  0  0  0  0  0  0  0  0  0
    8.3433   -2.0490    0.0000 F   0  0  0  0  0  0  0  0  0  0  0  0
    9.8433    0.5490    0.0000 F   0  0  0  0  0  0  0  0  0  0  0  0
  1  2  1  0
  2  3  1  0
  3  4  1  0
  4  5  1  0
  5  6  1  0
  5  7  1  0
  7  8  1  0
  8  9  1  0
  8 10  1  0
  8 11  1  0
 11 12  1  0
 11 13  1  0
 11 14  1  0
M  END
$$$$

     RDKit          2D

 23 24  0  0  0  0  0  0  0  0999 V2000
   -1.0981   -4.0981    0.0000 F   0  0  0  0  0  0  0  0  0  0  0  0
    0.2010   -3.3481    0.0000 C   0  0  0  0  0  0  0  0  0  0  0  0
    0.6143   -4.7900    0.0000 F   0  0  0  0  0  0  0  0  0  0  0  0
   -0.8411   -2.2691    0.0000 F   0  0  0  0  0  0  0  0  0  0  0  0
    1.5000   -2.5981    0.0000 C   0  0  0  0  0  0  0  0  0  0  0  0
    0.7500   -1.2990    0.0000 C   0  0  0  0  0  0  0  0  0  0  0  0
    1.5000    0.0000    0.0000 C   0  0  0  0  0  0  0  0  0  0  0  0
    0.7500    1.2990    0.0000 C   0  0  0  0  0  0  0  0  0  0  0  0
   -0.7500    1.2990    0.0000 C   0  0  0  0  0  0  0  0  0  0  0  0
   -1.5000    2.5981    0.0000 S   0  0  0  0  0  0  0  0  0  0  0  0
   -1.5000    0.0000    0.0000 C   0  0  0  0  0  0  0  0  0  0  0  0
   -0.7500   -1.2990    0.0000 C   0  0  0  0  0  0  0  0  0  0  0  0
    2.2500   -3.8971    0.0000 C   0  0  0  0  0  0  0  0  0  0  0  0
    1.5000   -5.1962    0.0000 C   0  0  0  0  0  0  0  0  0  0  0  0
    2.2500   -6.4952    0.0000 C   0  0  0  0  0  0  0  0  0  0  0  0
    3.7500   -6.4952    0.0000 C   0  0  0  0  0  0  0  0  0  0  0  0
    4.5000   -7.7942    0.0000 S   0  0  0  0  0  0  0  0  0  0  0  0
    4.5000   -5.1962    0.0000 C   0  0  0  0  0  0  0  0  0  0  0  0
    3.7500   -3.8971    0.0000 C   0  0  0  0  0  0  0  0  0  0  0  0
    2.7990   -1.8481    0.0000 C   0  0  0  0  0  0  0  0  0  0  0  0
    4.0981   -1.0981    0.0000 F   0  0  0  0  0  0  0  0  0  0  0  0
    3.8411   -2.9270    0.0000 F   0  0  0  0  0  0  0  0  0  0  0  0
    2.3857   -0.4062    0.0000 F   0  0  0  0  0  0  0  0  0  0  0  0
  1  2  1  0
  2  3  1  0
  2  4  1  0
  2  5  1  0
  5  6  1  0
  6  7  2  0
  7  8  1  0
  8  9  2  0
  9 10  1  0
  9 11  1  0
 11 12  2  0
  5 13  1  0
 13 14  2  0
 14 15  1  0
 15 16  2  0
 16 17  1  0
 16 18  1  0
 18 19  2  0
  5 20  1  0
 20 21  1  0
 20 22  1  0
 20 23  1  0
 12  6  1  0
 19 13  1  0
M  END
$$$$

     RDKit          2D

 31 30  0  0  0  0  0  0  0  0999 V2000
    0.0000    0.0000    0.0000 C   0  0  0  0  0  0  0  0  0  0  0  0
    1.2990    0.7500    0.0000 C   0  0  0  0  0  0  0  0  0  0  0  0
    2.5981   -0.0000    0.0000 C   0  0  0  0  0  0  0  0  0  0  0  0
    3.8971    0.7500    0.0000 C   0  0  0  0  0  0  0  0  0  0  0  0
    5.1962   -0.0000    0.0000 C   0  0  0  0  0  0  0  0  0  0  0  0
    6.4952    0.7500    0.0000 C   0  0  0  0  0  0  0  0  0  0  0  0
    7.7942   -0.0000    0.0000 C   0  0  0  0  0  0  0  0  0  0  0  0
    9.0933    0.7500    0.0000 O   0  0  0  0  0  0  0  0  0  0  0  0
   10.3923   -0.0000    0.0000 C   0  0  0  0  0  0  0  0  0  0  0  0
   10.3923   -1.5000    0.0000 O   0  0  0  0  0  0  0  0  0  0  0  0
   11.6913    0.7500    0.0000 C   0  0  0  0  0  0  0  0  0  0  0  0
   11.6913    2.2500    0.0000 F   0  0  0  0  0  0  0  0  0  0  0  0
   12.9904   -0.0000    0.0000 C   0  0  0  0  0  0  0  0  0  0  0  0
   13.7404    1.2990    0.0000 F   0  0  0  0  0  0  0  0  0  0  0  0
   12.2404   -1.2990    0.0000 F   0  0  0  0  0  0  0  0  0  0  0  0
   14.2894   -0.7500    0.0000 C   0  0  0  0  0  0  0  0  0  0  0  0
   13.5394   -2.0490    0.0000 F   0  0  0  0  0  0  0  0  0  0  0  0
   15.0394    0.5490    0.0000 F   0  0  0  0  0  0  0  0  0  0  0  0
   15.5885   -1.5000    0.0000 C   0  0  0  0  0  0  0  0  0  0  0  0
   16.3385   -0.2010    0.0000 F   0  0  0  0  0  0  0  0  0  0  0  0
   14.8385   -2.7990    0.0000 F   0  0  0  0  0  0  0  0  0  0  0  0
   16.8875   -2.2500    0.0000 C   0  0  0  0  0  0  0  0  0  0  0  0
   16.1375   -3.5490    0.0000 F   0  0  0  0  0  0  0  0  0  0  0  0
   17.6375   -0.9510    0.0000 F   0  0  0  0  0  0  0  0  0  0  0  0
   18.1865   -3.0000    0.0000 C   0  0  0  0  0  0  0  0  0  0  0  0
   18.9365   -1.7010    0.0000 F   0  0  0  0  0  0  0  0  0  0  0  0
   17.4365   -4.2990    0.0000 F   0  0  0  0  0  0  0  0  0  0  0  0
   19.4856   -3.7500    0.0000 C   0  0  0  0  0  0  0  0  0  0  0  0
   20.7846   -4.5000    0.0000 F   0  0  0  0  0  0  0  0  0  0  0  0
   18.7356   -5.0490    0.0000 F   0  0  0  0  0  0  0  0  0  0  0  0
   20.2356   -2.4510    0.0000 F   0  0  0  0  0  0  0  0  0  0  0  0
  1  2  1  0
  2  3  1  0
  3  4  1  0
  4  5  1  0
  5  6  1  0
  6  7  1  0
  7  8  1  0
  8  9  1  0
  9 10  2  0
  9 11  1  0
 11 12  1  0
 11 13  1  0
 13 14  1  0
 13 15  1  0
 13 16  1  0
 16 17  1  0
 16 18  1  0
 16 19  1  0
 19 20  1  0
 19 21  1  0
 19 22  1  0
 22 23  1  0
 22 24  1  0
 22 25  1  0
 25 26  1  0
 25 27  1  0
 25 28  1  0
 28 29  1  0
 28 30  1  0
 28 31  1  0
M  END
$$$$

     RDKit          2D

 10  9  0  0  0  0  0  0  0  0999 V2000
    2.5981    1.5000    0.0000 F   0  0  0  0  0  0  0  0  0  0  0  0
    1.2990    0.7500    0.0000 C   0  0  0  0  0  0  0  0  0  0  0  0
    2.0490   -0.5490    0.0000 F   0  0  0  0  0  0  0  0  0  0  0  0
    0.5490    2.0490    0.0000 F   0  0  0  0  0  0  0  0  0  0  0  0
    0.0000    0.0000    0.0000 C   0  0  0  0  0  0  0  0  0  0  0  0
   -0.0000   -1.5000    0.0000 I   0  0  0  0  0  0  0  0  0  0  0  0
   -1.2990    0.7500    0.0000 C   0  0  0  0  0  0  0  0  0  0  0  0
   -2.5981    1.5000    0.0000 F   0  0  0  0  0  0  0  0  0  0  0  0
   -2.0490   -0.5490    0.0000 F   0  0  0  0  0  0  0  0  0  0  0  0
   -0.5490    2.0490    0.0000 F   0  0  0  0  0  0  0  0  0  0  0  0
  1  2  1  0
  2  3  1  0
  2  4  1  0
  2  5  1  0
  5  6  1  0
  5  7  1  0
  7  8  1  0
  7  9  1  0
  7 10  1  0
M  END
$$$$

     RDKit          2D

 23 22  0  0  0  0  0  0  0  0999 V2000
    0.0000    0.0000    0.0000 C   0  0  0  0  0  0  0  0  0  0  0  0
   -0.0000   -1.5000    0.0000 C   0  0  0  0  0  0  0  0  0  0  0  0
   -0.0000   -3.0000    0.0000 C   0  0  0  0  0  0  0  0  0  0  0  0
    1.2990   -3.7500    0.0000 C   0  0  0  0  0  0  0  0  0  0  0  0
    2.5981   -3.0000    0.0000 O   0  0  0  0  0  0  0  0  0  0  0  0
    1.2990   -5.2500    0.0000 C   0  0  0  0  0  0  0  0  0  0  0  0
    2.7990   -5.2500    0.0000 F   0  0  0  0  0  0  0  0  0  0  0  0
   -0.2010   -5.2500    0.0000 F   0  0  0  0  0  0  0  0  0  0  0  0
    1.2990   -6.7500    0.0000 C   0  0  0  0  0  0  0  0  0  0  0  0
   -0.2010   -6.7500    0.0000 F   0  0  0  0  0  0  0  0  0  0  0  0
    2.7990   -6.7500    0.0000 F   0  0  0  0  0  0  0  0  0  0  0  0
    1.2990   -8.2500    0.0000 C   0  0  0  0  0  0  0  0  0  0  0  0
    2.7990   -8.2500    0.0000 F   0  0  0  0  0  0  0  0  0  0  0  0
   -0.2010   -8.2500    0.0000 F   0  0  0  0  0  0  0  0  0  0  0  0
    1.2990   -9.7500    0.0000 C   0  0  0  0  0  0  0  0  0  0  0  0
    2.7990   -9.7500    0.0000 F   0  0  0  0  0  0  0  0  0  0  0  0
   -0.2010   -9.7500    0.0000 F   0  0  0  0  0  0  0  0  0  0  0  0
    1.2990  -11.2500    0.0000 C   0  0  0  0  0  0  0  0  0  0  0  0
   -0.2010  -11.2500    0.0000 F   0  0  0  0  0  0  0  0  0  0  0  0
    2.7990  -11.2500    0.0000 F   0  0  0  0  0  0  0  0  0  0  0  0
    1.2990  -12.7500    0.0000 C   0  0  0  0  0  0  0  0  0  0  0  0
    0.0000  -13.5000    0.0000 F   0  0  0  0  0  0  0  0  0  0  0  0
    2.5981  -13.5000    0.0000 F   0  0  0  0  0  0  0  0  0  0  0  0
  1  2  3  0
  2  3  1  0
  3  4  1  0
  4  5  1  0
  4  6  1  0
  6  7  1  0
  6  8  1  0
  6  9  1  0
  9 10  1  0
  9 11  1  0
  9 12  1  0
 12 13  1  0
 12 14  1  0
 12 15  1  0
 15 16  1  0
 15 17  1  0
 15 18  1  0
 18 19  1  0
 18 20  1  0
 18 21  1  0
 21 22  1  0
 21 23  1  0
M  END
$$$$

     RDKit          2D

 20 19  0  0  0  0  0  0  0  0999 V2000
    0.0000   -3.0000    0.0000 O   0  0  0  0  0  0  0  0  0  0  0  0
    0.0000   -1.5000    0.0000 S   0  0  0  0  0  0  0  0  0  0  0  0
   -1.5000   -1.5000    0.0000 O   0  0  0  0  0  0  0  0  0  0  0  0
    0.7912   -1.5972    0.0000 F   0  0  0  0  0  0  0  0  0  0  0  0
    0.0000    0.0000    0.0000 C   0  0  0  0  0  0  0  0  0  0  0  0
   -1.5000    0.0000    0.0000 F   0  0  0  0  0  0  0  0  0  0  0  0
    0.0000    1.5000    0.0000 F   0  0  0  0  0  0  0  0  0  0  0  0
    1.5000    0.0000    0.0000 C   0  0  0  0  0  0  0  0  0  0  0  0
    1.5000    1.5000    0.0000 F   0  0  0  0  0  0  0  0  0  0  0  0
    1.6080   -0.8791    0.0000 F   0  0  0  0  0  0  0  0  0  0  0  0
    3.0000    0.0000    0.0000 C   0  0  0  0  0  0  0  0  0  0  0  0
    2.8172    1.4888    0.0000 F   0  0  0  0  0  0  0  0  0  0  0  0
    3.0000   -1.5000    0.0000 F   0  0  0  0  0  0  0  0  0  0  0  0
    4.5000    0.0000    0.0000 C   0  0  0  0  0  0  0  0  0  0  0  0
    6.0000    0.0000    0.0000 F   0  0  0  0  0  0  0  0  0  0  0  0
    4.5000   -1.5000    0.0000 F   0  0  0  0  0  0  0  0  0  0  0  0
    4.5000    1.5000    0.0000 S   0  0  0  0  0  0  0  0  0  0  0  0
    4.5000    3.0000    0.0000 O   0  0  0  0  0  0  0  0  0  0  0  0
    6.0000    1.5000    0.0000 O   0  0  0  0  0  0  0  0  0  0  0  0
    3.0112    1.6828    0.0000 F   0  0  0  0  0  0  0  0  0  0  0  0
  1  2  2  0
  2  3  2  0
  2  4  1  0
  2  5  1  0
  5  6  1  0
  5  7  1  0
  5  8  1  0
  8  9  1  0
  8 10  1  0
  8 11  1  0
 11 12  1  0
 11 13  1  0
 11 14  1  0
 14 15  1  0
 14 16  1  0
 14 17  1  0
 17 18  2  0
 17 19  2  0
 17 20  1  0
M  END
$$$$

     RDKit          2D

 24 23  0  0  0  0  0  0  0  0999 V2000
   -0.0000   -3.0000    0.0000 F   0  0  0  0  0  0  0  0  0  0  0  0
   -0.0000   -1.5000    0.0000 C   0  0  0  0  0  0  0  0  0  0  0  0
    0.7735   -1.6929    0.0000 F   0  0  0  0  0  0  0  0  0  0  0  0
   -1.5000   -1.5000    0.0000 F   0  0  0  0  0  0  0  0  0  0  0  0
   -0.0000    0.0000    0.0000 C   0  0  0  0  0  0  0  0  0  0  0  0
    1.2990    0.7500    0.0000 C   0  0  0  0  0  0  0  0  0  0  0  0
    1.2990    2.2500    0.0000 C   0  0  0  0  0  0  0  0  0  0  0  0
    1.2990    3.7500    0.0000 F   0  0  0  0  0  0  0  0  0  0  0  0
    2.7990    2.2500    0.0000 F   0  0  0  0  0  0  0  0  0  0  0  0
   -0.1898    2.4328    0.0000 F   0  0  0  0  0  0  0  0  0  0  0  0
    2.5981    0.0000    0.0000 C   0  0  0  0  0  0  0  0  0  0  0  0
    3.3481    1.2990    0.0000 F   0  0  0  0  0  0  0  0  0  0  0  0
    3.8971   -0.7500    0.0000 C   0  0  0  0  0  0  0  0  0  0  0  0
    5.1962   -1.5000    0.0000 F   0  0  0  0  0  0  0  0  0  0  0  0
    4.6471    0.5490    0.0000 F   0  0  0  0  0  0  0  0  0  0  0  0
    3.3111   -2.1308    0.0000 F   0  0  0  0  0  0  0  0  0  0  0  0
    1.8481   -1.2990    0.0000 C   0  0  0  0  0  0  0  0  0  0  0  0
    1.3560   -2.1513    0.0000 F   0  0  0  0  0  0  0  0  0  0  0  0
    3.0460   -2.2018    0.0000 F   0  0  0  0  0  0  0  0  0  0  0  0
    0.4062   -0.8857    0.0000 F   0  0  0  0  0  0  0  0  0  0  0  0
   -1.2990    0.7500    0.0000 C   0  0  0  0  0  0  0  0  0  0  0  0
   -2.5981    1.5000    0.0000 F   0  0  0  0  0  0  0  0  0  0  0  0
   -2.0490   -0.5490    0.0000 F   0  0  0  0  0  0  0  0  0  0  0  0
   -0.7130    2.1308    0.0000 F   0  0  0  0  0  0  0  0  0  0  0  0
  1  2  1  0
  2  3  1  0
  2  4  1  0
  2  5  1  0
  5  6  2  0
  6  7  1  0
  7  8  1  0
  7  9  1  0
  7 10  1  0
  6 11  1  0
 11 12  1  0
 11 13  1  0
 13 14  1  0
 13 15  1  0
 13 16  1  0
 11 17  1  0
 17 18  1  0
 17 19  1  0
 17 20  1  0
  5 21  1  0
 21 22  1  0
 21 23  1  0
 21 24  1  0
M  END
$$$$

     RDKit          2D

 25 26  0  0  0  0  0  0  0  0999 V2000
    4.5000    0.0000    0.0000 C   0  0  0  0  0  0  0  0  0  0  0  0
    3.0000    0.0000    0.0000 C   0  0  0  0  0  0  0  0  0  0  0  0
    1.5000    0.0000    0.0000 C   0  0  0  0  0  0  0  0  0  0  0  0
    0.7500   -1.2990    0.0000 C   0  0  0  0  0  0  0  0  0  0  0  0
   -0.7500   -1.2990    0.0000 C   0  0  0  0  0  0  0  0  0  0  0  0
   -1.5000    0.0000    0.0000 C   0  0  0  0  0  0  0  0  0  0  0  0
   -3.0000    0.0000    0.0000 C   0  0  0  0  0  0  0  0  0  0  0  0
   -4.5000    0.0000    0.0000 C   0  0  0  0  0  0  0  0  0  0  0  0
   -5.2500    1.2990    0.0000 C   0  0  0  0  0  0  0  0  0  0  0  0
   -6.7500    1.2990    0.0000 C   0  0  0  0  0  0  0  0  0  0  0  0
   -7.5000    0.0000    0.0000 C   0  0  0  0  0  0  0  0  0  0  0  0
   -9.0000    0.0000    0.0000 C   0  0  0  0  0  0  0  0  0  0  0  0
  -10.5000   -0.0000    0.0000 C   0  0  0  0  0  0  0  0  0  0  0  0
   -6.7500   -1.2990    0.0000 C   0  0  0  0  0  0  0  0  0  0  0  0
   -5.2500   -1.2990    0.0000 C   0  0  0  0  0  0  0  0  0  0  0  0
   -3.0000    1.5000    0.0000 C   0  0  0  0  0  0  0  0  0  0  0  0
   -3.0000    3.0000    0.0000 F   0  0  0  0  0  0  0  0  0  0  0  0
   -4.4554    1.8630    0.0000 F   0  0  0  0  0  0  0  0  0  0  0  0
   -1.5446    1.8630    0.0000 F   0  0  0  0  0  0  0  0  0  0  0  0
   -3.0000   -1.5000    0.0000 C   0  0  0  0  0  0  0  0  0  0  0  0
   -3.0000   -3.0000    0.0000 F   0  0  0  0  0  0  0  0  0  0  0  0
   -4.4554   -1.8630    0.0000 F   0  0  0  0  0  0  0  0  0  0  0  0
   -1.5446   -1.8630    0.0000 F   0  0  0  0  0  0  0  0  0  0  0  0
   -0.7500    1.2990    0.0000 C   0  0  0  0  0  0  0  0  0  0  0  0
    0.7500    1.2990    0.0000 C   0  0  0  0  0  0  0  0  0  0  0  0
  1  2  3  0
  2  3  1  0
  3  4  2  0
  4  5  1  0
  5  6  2  0
  6  7  1  0
  7  8  1  0
  8  9  2  0
  9 10  1  0
 10 11  2  0
 11 12  1  0
 12 13  3  0
 11 14  1  0
 14 15  2  0
  7 16  1  0
 16 17  1  0
 16 18  1  0
 16 19  1  0
  7 20  1  0
 20 21  1  0
 20 22  1  0
 20 23  1  0
  6 24  1  0
 24 25  2  0
 25  3  1  0
 15  8  1  0
M  END
$$$$

     RDKit          2D

 14 13  0  0  0  0  0  0  0  0999 V2000
    0.0000    0.0000    0.0000 C   0  0  0  0  0  0  0  0  0  0  0  0
    1.2990    0.7500    0.0000 O   0  0  0  0  0  0  0  0  0  0  0  0
    2.5981   -0.0000    0.0000 C   0  0  0  0  0  0  0  0  0  0  0  0
    2.5981   -1.5000    0.0000 O   0  0  0  0  0  0  0  0  0  0  0  0
    3.8971    0.7500    0.0000 C   0  0  0  0  0  0  0  0  0  0  0  0
    4.6471   -0.5490    0.0000 F   0  0  0  0  0  0  0  0  0  0  0  0
    3.1471    2.0490    0.0000 F   0  0  0  0  0  0  0  0  0  0  0  0
    5.1962    1.5000    0.0000 C   0  0  0  0  0  0  0  0  0  0  0  0
    4.4462    2.7990    0.0000 F   0  0  0  0  0  0  0  0  0  0  0  0
    5.9462    0.2010    0.0000 Br  0  0  0  0  0  0  0  0  0  0  0  0
    6.4952    2.2500    0.0000 C   0  0  0  0  0  0  0  0  0  0  0  0
    7.7942    3.0000    0.0000 F   0  0  0  0  0  0  0  0  0  0  0  0
    7.2452    0.9510    0.0000 F   0  0  0  0  0  0  0  0  0  0  0  0
    5.7452    3.5490    0.0000 Br  0  0  0  0  0  0  0  0  0  0  0  0
  1  2  1  0
  2  3  1  0
  3  4  2  0
  3  5  1  0
  5  6  1  0
  5  7  1  0
  5  8  1  0
  8  9  1  0
  8 10  1  0
  8 11  1  0
 11 12  1  0
 11 13  1  0
 11 14  1  0
M  END
$$$$

     RDKit          2D

 22 21  0  0  0  0  0  0  0  0999 V2000
    0.0000    0.0000    0.0000 C   0  0  0  0  0  0  0  0  0  0  0  0
    1.2990    0.7500    0.0000 O   0  0  0  0  0  0  0  0  0  0  0  0
    2.5981   -0.0000    0.0000 C   0  0  0  0  0  0  0  0  0  0  0  0
    1.8481   -1.2990    0.0000 F   0  0  0  0  0  0  0  0  0  0  0  0
    3.3481    1.2990    0.0000 F   0  0  0  0  0  0  0  0  0  0  0  0
    3.8971   -0.7500    0.0000 C   0  0  0  0  0  0  0  0  0  0  0  0
    4.6471    0.5490    0.0000 F   0  0  0  0  0  0  0  0  0  0  0  0
    3.1471   -2.0490    0.0000 F   0  0  0  0  0  0  0  0  0  0  0  0
    5.1962   -1.5000    0.0000 C   0  0  0  0  0  0  0  0  0  0  0  0
    4.4462   -2.7990    0.0000 F   0  0  0  0  0  0  0  0  0  0  0  0
    5.9462   -0.2010    0.0000 F   0  0  0  0  0  0  0  0  0  0  0  0
    6.4952   -2.2500    0.0000 C   0  0  0  0  0  0  0  0  0  0  0  0
    5.7452   -3.5490    0.0000 F   0  0  0  0  0  0  0  0  0  0  0  0
    7.2452   -0.9510    0.0000 F   0  0  0  0  0  0  0  0  0  0  0  0
    7.7942   -3.0000    0.0000 C   0  0  0  0  0  0  0  0  0  0  0  0
    8.5442   -1.7010    0.0000 F   0  0  0  0  0  0  0  0  0  0  0  0
    7.0442   -4.2990    0.0000 F   0  0  0  0  0  0  0  0  0  0  0  0
    9.0933   -3.7500    0.0000 C   0  0  0  0  0  0  0  0  0  0  0  0
    8.3433   -5.0490    0.0000 F   0  0  0  0  0  0  0  0  0  0  0  0
    9.8433   -2.4510    0.0000 F   0  0  0  0  0  0  0  0  0  0  0  0
   10.3923   -4.5000    0.0000 O   0  0  0  0  0  0  0  0  0  0  0  0
   11.6913   -3.7500    0.0000 C   0  0  0  0  0  0  0  0  0  0  0  0
  1  2  1  0
  2  3  1  0
  3  4  1  0
  3  5  1  0
  3  6  1  0
  6  7  1  0
  6  8  1  0
  6  9  1  0
  9 10  1  0
  9 11  1  0
  9 12  1  0
 12 13  1  0
 12 14  1  0
 12 15  1  0
 15 16  1  0
 15 17  1  0
 15 18  1  0
 18 19  1  0
 18 20  1  0
 18 21  1  0
 21 22  1  0
M  END
$$$$

     RDKit          2D

 17 16  0  0  0  0  0  0  0  0999 V2000
    0.0000    0.0000    0.0000 C   0  0  0  0  0  0  0  0  0  0  0  0
    1.2990    0.7500    0.0000 Si  0  0  0  0  0  4  0  0  0  0  0  0
    2.5981    1.5000    0.0000 C   0  0  0  0  0  0  0  0  0  0  0  0
    2.0490   -0.5490    0.0000 C   0  0  0  0  0  0  0  0  0  0  0  0
    0.5490    2.0490    0.0000 C   0  0  0  0  0  0  0  0  0  0  0  0
   -0.9510    2.0490    0.0000 I   0  0  0  0  0  0  0  0  0  0  0  0
    1.2990    3.3481    0.0000 C   0  0  0  0  0  0  0  0  0  0  0  0
    0.5490    4.6471    0.0000 C   0  0  0  0  0  0  0  0  0  0  0  0
    1.8481    5.3971    0.0000 F   0  0  0  0  0  0  0  0  0  0  0  0
   -0.7500    3.8971    0.0000 F   0  0  0  0  0  0  0  0  0  0  0  0
   -0.2010    5.9462    0.0000 C   0  0  0  0  0  0  0  0  0  0  0  0
   -1.5000    5.1962    0.0000 F   0  0  0  0  0  0  0  0  0  0  0  0
    1.0981    6.6962    0.0000 F   0  0  0  0  0  0  0  0  0  0  0  0
   -0.9510    7.2452    0.0000 C   0  0  0  0  0  0  0  0  0  0  0  0
   -1.7010    8.5442    0.0000 F   0  0  0  0  0  0  0  0  0  0  0  0
    0.3481    7.9952    0.0000 F   0  0  0  0  0  0  0  0  0  0  0  0
   -2.2500    6.4952    0.0000 F   0  0  0  0  0  0  0  0  0  0  0  0
  1  2  1  0
  2  3  1  0
  2  4  1  0
  2  5  1  0
  5  6  1  0
  5  7  1  0
  7  8  1  0
  8  9  1  0
  8 10  1  0
  8 11  1  0
 11 12  1  0
 11 13  1  0
 11 14  1  0
 14 15  1  0
 14 16  1  0
 14 17  1  0
M  END
$$$$

     RDKit          2D

 15 14  0  0  0  0  0  0  0  0999 V2000
   -1.2990    0.7500    0.0000 O   0  0  0  0  0  0  0  0  0  0  0  0
    0.0000    0.0000    0.0000 C   0  0  0  0  0  0  0  0  0  0  0  0
    1.2990    0.7500    0.0000 C   0  0  0  0  0  0  0  0  0  0  0  0
    1.2990    2.2500    0.0000 I   0  0  0  0  0  0  0  0  0  0  0  0
    2.5981   -0.0000    0.0000 C   0  0  0  0  0  0  0  0  0  0  0  0
    3.8971    0.7500    0.0000 C   0  0  0  0  0  0  0  0  0  0  0  0
    4.6471   -0.5490    0.0000 F   0  0  0  0  0  0  0  0  0  0  0  0
    3.1471    2.0490    0.0000 F   0  0  0  0  0  0  0  0  0  0  0  0
    5.1962    1.5000    0.0000 C   0  0  0  0  0  0  0  0  0  0  0  0
    4.4462    2.7990    0.0000 F   0  0  0  0  0  0  0  0  0  0  0  0
    5.9462    0.2010    0.0000 F   0  0  0  0  0  0  0  0  0  0  0  0
    6.4952    2.2500    0.0000 C   0  0  0  0  0  0  0  0  0  0  0  0
    7.7942    3.0000    0.0000 F   0  0  0  0  0  0  0  0  0  0  0  0
    7.2452    0.9510    0.0000 F   0  0  0  0  0  0  0  0  0  0  0  0
    5.7452    3.5490    0.0000 F   0  0  0  0  0  0  0  0  0  0  0  0
  1  2  1  0
  2  3  1  0
  3  4  1  0
  3  5  1  0
  5  6  1  0
  6  7  1  0
  6  8  1  0
  6  9  1  0
  9 10  1  0
  9 11  1  0
  9 12  1  0
 12 13  1  0
 12 14  1  0
 12 15  1  0
M  END
$$$$

     RDKit          2D

 35 35  0  0  0  0  0  0  0  0999 V2000
    4.5000    0.0000    0.0000 O   0  0  0  0  0  0  0  0  0  0  0  0
    3.0000    0.0000    0.0000 S   0  0  0  0  0  0  0  0  0  0  0  0
    3.0000   -1.5000    0.0000 O   0  0  0  0  0  0  0  0  0  0  0  0
    3.0000    1.5000    0.0000 Cl  0  0  0  0  0  0  0  0  0  0  0  0
    1.5000    0.0000    0.0000 C   0  0  0  0  0  0  0  0  0  0  0  0
    0.7500   -1.2990    0.0000 C   0  0  0  0  0  0  0  0  0  0  0  0
   -0.7500   -1.2990    0.0000 C   0  0  0  0  0  0  0  0  0  0  0  0
   -1.5000    0.0000    0.0000 C   0  0  0  0  0  0  0  0  0  0  0  0
   -0.7500    1.2990    0.0000 C   0  0  0  0  0  0  0  0  0  0  0  0
   -1.5000    2.5981    0.0000 C   0  0  0  0  0  0  0  0  0  0  0  0
   -0.2010    3.3481    0.0000 F   0  0  0  0  0  0  0  0  0  0  0  0
   -2.7990    1.8481    0.0000 F   0  0  0  0  0  0  0  0  0  0  0  0
   -2.2500    3.8971    0.0000 C   0  0  0  0  0  0  0  0  0  0  0  0
   -3.5490    3.1471    0.0000 F   0  0  0  0  0  0  0  0  0  0  0  0
   -0.9510    4.6471    0.0000 F   0  0  0  0  0  0  0  0  0  0  0  0
   -3.0000    5.1962    0.0000 C   0  0  0  0  0  0  0  0  0  0  0  0
   -1.7010    5.9462    0.0000 F   0  0  0  0  0  0  0  0  0  0  0  0
   -4.2990    4.4462    0.0000 F   0  0  0  0  0  0  0  0  0  0  0  0
   -3.7500    6.4952    0.0000 C   0  0  0  0  0  0  0  0  0  0  0  0
   -5.0490    5.7452    0.0000 F   0  0  0  0  0  0  0  0  0  0  0  0
   -2.4510    7.2452    0.0000 F   0  0  0  0  0  0  0  0  0  0  0  0
   -4.5000    7.7942    0.0000 C   0  0  0  0  0  0  0  0  0  0  0  0
   -3.2010    8.5442    0.0000 F   0  0  0  0  0  0  0  0  0  0  0  0
   -5.7990    7.0442    0.0000 F   0  0  0  0  0  0  0  0  0  0  0  0
   -5.2500    9.0933    0.0000 C   0  0  0  0  0  0  0  0  0  0  0  0
   -6.5490    8.3433    0.0000 F   0  0  0  0  0  0  0  0  0  0  0  0
   -3.9510    9.8433    0.0000 F   0  0  0  0  0  0  0  0  0  0  0  0
   -6.0000   10.3923    0.0000 C   0  0  0  0  0  0  0  0  0  0  0  0
   -4.7010   11.1423    0.0000 F   0  0  0  0  0  0  0  0  0  0  0  0
   -7.2990    9.6423    0.0000 F   0  0  0  0  0  0  0  0  0  0  0  0
   -6.7500   11.6913    0.0000 C   0  0  0  0  0  0  0  0  0  0  0  0
   -7.5000   12.9904    0.0000 F   0  0  0  0  0  0  0  0  0  0  0  0
   -8.0490   10.9413    0.0000 F   0  0  0  0  0  0  0  0  0  0  0  0
   -5.4510   12.4413    0.0000 F   0  0  0  0  0  0  0  0  0  0  0  0
    0.7500    1.2990    0.0000 C   0  0  0  0  0  0  0  0  0  0  0  0
  1  2  2  0
  2  3  2  0
  2  4  1  0
  2  5  1  0
  5  6  2  0
  6  7  1  0
  7  8  2  0
  8  9  1  0
  9 10  1  0
 10 11  1  0
 10 12  1  0
 10 13  1  0
 13 14  1  0
 13 15  1  0
 13 16  1  0
 16 17  1  0
 16 18  1  0
 16 19  1  0
 19 20  1  0
 19 21  1  0
 19 22  1  0
 22 23  1  0
 22 24  1  0
 22 25  1  0
 25 26  1  0
 25 27  1  0
 25 28  1  0
 28 29  1  0
 28 30  1  0
 28 31  1  0
 31 32  1  0
 31 33  1  0
 31 34  1  0
  9 35  2  0
 35  5  1  0
M  END
$$$$

     RDKit          2D

 19 18  0  0  0  0  0  0  0  0999 V2000
    0.0000    0.0000    0.0000 C   0  0  0  0  0  0  0  0  0  0  0  0
    1.2990    0.7500    0.0000 C   0  0  0  0  0  0  0  0  0  0  0  0
    2.5981    1.5000    0.0000 C   0  0  0  0  0  0  0  0  0  0  0  0
    2.0490   -0.5490    0.0000 C   0  0  0  0  0  0  0  0  0  0  0  0
    3.5490   -0.5490    0.0000 O   0  0  0  0  0  0  0  0  0  0  0  0
    4.2990   -1.8481    0.0000 C   0  0  0  0  0  0  0  0  0  0  0  0
    3.0000   -2.5981    0.0000 F   0  0  0  0  0  0  0  0  0  0  0  0
    5.5981   -1.0981    0.0000 F   0  0  0  0  0  0  0  0  0  0  0  0
    5.0490   -3.1471    0.0000 C   0  0  0  0  0  0  0  0  0  0  0  0
    4.2990   -4.4462    0.0000 F   0  0  0  0  0  0  0  0  0  0  0  0
    6.5490   -3.1471    0.0000 F   0  0  0  0  0  0  0  0  0  0  0  0
    0.5490    2.0490    0.0000 C   0  0  0  0  0  0  0  0  0  0  0  0
    1.2990    3.3481    0.0000 O   0  0  0  0  0  0  0  0  0  0  0  0
    0.5490    4.6471    0.0000 C   0  0  0  0  0  0  0  0  0  0  0  0
   -0.7500    3.8971    0.0000 F   0  0  0  0  0  0  0  0  0  0  0  0
    1.8481    5.3971    0.0000 F   0  0  0  0  0  0  0  0  0  0  0  0
   -0.2010    5.9462    0.0000 C   0  0  0  0  0  0  0  0  0  0  0  0
   -1.7010    5.9462    0.0000 F   0  0  0  0  0  0  0  0  0  0  0  0
    0.5490    7.2452    0.0000 F   0  0  0  0  0  0  0  0  0  0  0  0
  1  2  1  0
  2  3  1  0
  2  4  1  0
  4  5  1  0
  5  6  1  0
  6  7  1  0
  6  8  1  0
  6  9  1  0
  9 10  1  0
  9 11  1  0
  2 12  1  0
 12 13  1  0
 13 14  1  0
 14 15  1  0
 14 16  1  0
 14 17  1  0
 17 18  1  0
 17 19  1  0
M  END
$$$$

     RDKit          2D

 13 12  0  0  0  0  0  0  0  0999 V2000
    0.5490    2.0490    0.0000 O   0  0  0  0  0  0  0  0  0  0  0  0
    1.2990    0.7500    0.0000 C   0  0  0  0  0  0  0  0  0  0  0  0
    0.0000    0.0000    0.0000 C   0  0  0  0  0  0  0  0  0  0  0  0
   -1.2990    0.7500    0.0000 F   0  0  0  0  0  0  0  0  0  0  0  0
   -0.1828   -1.4888    0.0000 F   0  0  0  0  0  0  0  0  0  0  0  0
    2.5981    1.5000    0.0000 C   0  0  0  0  0  0  0  0  0  0  0  0
    3.8971    2.2500    0.0000 F   0  0  0  0  0  0  0  0  0  0  0  0
    1.8481    2.7990    0.0000 F   0  0  0  0  0  0  0  0  0  0  0  0
    3.1311    0.7926    0.0000 F   0  0  0  0  0  0  0  0  0  0  0  0
    2.0490   -0.5490    0.0000 C   0  0  0  0  0  0  0  0  0  0  0  0
    2.7990   -1.8481    0.0000 F   0  0  0  0  0  0  0  0  0  0  0  0
    2.8644   -0.2030    0.0000 F   0  0  0  0  0  0  0  0  0  0  0  0
    0.8511   -1.4518    0.0000 F   0  0  0  0  0  0  0  0  0  0  0  0
  1  2  1  0
  2  3  1  0
  3  4  1  0
  3  5  1  0
  2  6  1  0
  6  7  1  0
  6  8  1  0
  6  9  1  0
  2 10  1  0
 10 11  1  0
 10 12  1  0
 10 13  1  0
M  END
$$$$

     RDKit          2D

 30 29  0  0  0  0  0  0  0  0999 V2000
  -11.6913    6.7500    0.0000 F   0  0  0  0  0  0  0  0  0  0  0  0
  -10.3923    6.0000    0.0000 C   0  0  0  0  0  0  0  0  0  0  0  0
   -9.6423    7.2990    0.0000 F   0  0  0  0  0  0  0  0  0  0  0  0
  -11.1423    4.7010    0.0000 F   0  0  0  0  0  0  0  0  0  0  0  0
   -9.0933    5.2500    0.0000 C   0  0  0  0  0  0  0  0  0  0  0  0
   -9.8433    3.9510    0.0000 F   0  0  0  0  0  0  0  0  0  0  0  0
   -8.3433    6.5490    0.0000 F   0  0  0  0  0  0  0  0  0  0  0  0
   -7.7942    4.5000    0.0000 C   0  0  0  0  0  0  0  0  0  0  0  0
   -7.0442    5.7990    0.0000 F   0  0  0  0  0  0  0  0  0  0  0  0
   -8.5442    3.2010    0.0000 F   0  0  0  0  0  0  0  0  0  0  0  0
   -6.4952    3.7500    0.0000 C   0  0  0  0  0  0  0  0  0  0  0  0
   -7.2452    2.4510    0.0000 F   0  0  0  0  0  0  0  0  0  0  0  0
   -5.7452    5.0490    0.0000 F   0  0  0  0  0  0  0  0  0  0  0  0
   -5.1962    3.0000    0.0000 C   0  0  0  0  0  0  0  0  0  0  0  0
   -4.4462    4.2990    0.0000 F   0  0  0  0  0  0  0  0  0  0  0  0
   -5.9462    1.7010    0.0000 F   0  0  0  0  0  0  0  0  0  0  0  0
   -3.8971    2.2500    0.0000 C   0  0  0  0  0  0  0  0  0  0  0  0
   -4.6471    0.9510    0.0000 F   0  0  0  0  0  0  0  0  0  0  0  0
   -3.1471    3.5490    0.0000 F   0  0  0  0  0  0  0  0  0  0  0  0
   -2.5981    1.5000    0.0000 C   0  0  0  0  0  0  0  0  0  0  0  0
   -1.8481    2.7990    0.0000 F   0  0  0  0  0  0  0  0  0  0  0  0
   -3.3481    0.2010    0.0000 F   0  0  0  0  0  0  0  0  0  0  0  0
   -1.2990    0.7500    0.0000 C   0  0  0  0  0  0  0  0  0  0  0  0
   -2.0490   -0.5490    0.0000 F   0  0  0  0  0  0  0  0  0  0  0  0
   -0.5490    2.0490    0.0000 F   0  0  0  0  0  0  0  0  0  0  0  0
    0.0000    0.0000    0.0000 C   0  0  0  0  0  0  0  0  0  0  0  0
    1.2990    0.7500    0.0000 C   0  0  0  0  0  0  0  0  0  0  0  0
    2.5981   -0.0000    0.0000 C   0  0  0  0  0  0  0  0  0  0  0  0
    3.8971    0.7500    0.0000 C   0  0  0  0  0  0  0  0  0  0  0  0
    5.1962   -0.0000    0.0000 I   0  0  0  0  0  0  0  0  0  0  0  0
  1  2  1  0
  2  3  1  0
  2  4  1  0
  2  5  1  0
  5  6  1  0
  5  7  1  0
  5  8  1  0
  8  9  1  0
  8 10  1  0
  8 11  1  0
 11 12  1  0
 11 13  1  0
 11 14  1  0
 14 15  1  0
 14 16  1  0
 14 17  1  0
 17 18  1  0
 17 19  1  0
 17 20  1  0
 20 21  1  0
 20 22  1  0
 20 23  1  0
 23 24  1  0
 23 25  1  0
 23 26  1  0
 26 27  1  0
 27 28  1  0
 28 29  1  0
 29 30  1  0
M  END
$$$$

     RDKit          2D

 13 12  0  0  0  0  0  0  0  0999 V2000
   -1.2990    0.7500    0.0000 O   0  0  0  0  0  0  0  0  0  0  0  0
    0.0000    0.0000    0.0000 C   0  0  0  0  0  0  0  0  0  0  0  0
    1.2990    0.7500    0.0000 C   0  0  0  0  0  0  0  0  0  0  0  0
    1.2990    2.2500    0.0000 O   0  0  0  0  0  0  0  0  0  0  0  0
    2.5981   -0.0000    0.0000 C   0  0  0  0  0  0  0  0  0  0  0  0
    3.3481    1.2990    0.0000 F   0  0  0  0  0  0  0  0  0  0  0  0
    1.8481   -1.2990    0.0000 F   0  0  0  0  0  0  0  0  0  0  0  0
    3.8971   -0.7500    0.0000 C   0  0  0  0  0  0  0  0  0  0  0  0
    5.1962   -0.0000    0.0000 F   0  0  0  0  0  0  0  0  0  0  0  0
    3.8971   -2.2500    0.0000 C   0  0  0  0  0  0  0  0  0  0  0  0
    3.8971   -3.7500    0.0000 F   0  0  0  0  0  0  0  0  0  0  0  0
    5.3971   -2.2500    0.0000 F   0  0  0  0  0  0  0  0  0  0  0  0
    2.3971   -2.2500    0.0000 F   0  0  0  0  0  0  0  0  0  0  0  0
  1  2  1  0
  2  3  1  0
  3  4  1  0
  3  5  1  0
  5  6  1  0
  5  7  1  0
  5  8  1  0
  8  9  1  0
  8 10  1  0
 10 11  1  0
 10 12  1  0
 10 13  1  0
M  END
$$$$

     RDKit          2D

 19 18  0  0  0  0  0  0  0  0999 V2000
   -1.2990    0.7500    0.0000 O   0  0  0  0  0  0  0  0  0  0  0  0
    0.0000    0.0000    0.0000 C   0  0  0  0  0  0  0  0  0  0  0  0
    1.2990    0.7500    0.0000 C   0  0  0  0  0  0  0  0  0  0  0  0
    1.2990    2.2500    0.0000 I   0  0  0  0  0  0  0  0  0  0  0  0
    2.5981   -0.0000    0.0000 C   0  0  0  0  0  0  0  0  0  0  0  0
    3.8971    0.7500    0.0000 C   0  0  0  0  0  0  0  0  0  0  0  0
    4.6471   -0.5490    0.0000 F   0  0  0  0  0  0  0  0  0  0  0  0
    3.1471    2.0490    0.0000 F   0  0  0  0  0  0  0  0  0  0  0  0
    5.1962    1.5000    0.0000 C   0  0  0  0  0  0  0  0  0  0  0  0
    4.4462    2.7990    0.0000 F   0  0  0  0  0  0  0  0  0  0  0  0
    5.9462    0.2010    0.0000 F   0  0  0  0  0  0  0  0  0  0  0  0
    6.4952    2.2500    0.0000 C   0  0  0  0  0  0  0  0  0  0  0  0
    5.7452    3.5490    0.0000 F   0  0  0  0  0  0  0  0  0  0  0  0
    7.2452    0.9510    0.0000 F   0  0  0  0  0  0  0  0  0  0  0  0
    7.7942    3.0000    0.0000 C   0  0  0  0  0  0  0  0  0  0  0  0
    7.7942    4.5000    0.0000 C   0  0  0  0  0  0  0  0  0  0  0  0
    6.4952    5.2500    0.0000 I   0  0  0  0  0  0  0  0  0  0  0  0
    9.0933    5.2500    0.0000 C   0  0  0  0  0  0  0  0  0  0  0  0
    9.0933    6.7500    0.0000 O   0  0  0  0  0  0  0  0  0  0  0  0
  1  2  1  0
  2  3  1  0
  3  4  1  0
  3  5  1  0
  5  6  1  0
  6  7  1  0
  6  8  1  0
  6  9  1  0
  9 10  1  0
  9 11  1  0
  9 12  1  0
 12 13  1  0
 12 14  1  0
 12 15  1  0
 15 16  1  0
 16 17  1  0
 16 18  1  0
 18 19  1  0
M  END
$$$$

     RDKit          2D

  9  8  0  0  0  0  0  0  0  0999 V2000
   -1.5000    0.0000    0.0000 F   0  0  0  0  0  0  0  0  0  0  0  0
    0.0000    0.0000    0.0000 C   0  0  0  0  0  0  0  0  0  0  0  0
    0.0000    1.5000    0.0000 F   0  0  0  0  0  0  0  0  0  0  0  0
   -0.0000   -1.5000    0.0000 F   0  0  0  0  0  0  0  0  0  0  0  0
    1.5000    0.0000    0.0000 C   0  0  0  0  0  0  0  0  0  0  0  0
    3.0000    0.0000    0.0000 F   0  0  0  0  0  0  0  0  0  0  0  0
    1.5000   -1.5000    0.0000 F   0  0  0  0  0  0  0  0  0  0  0  0
    1.5000    1.5000    0.0000 S   0  0  0  0  0  0  0  0  0  0  0  0
    2.7990    2.2500    0.0000 Cl  0  0  0  0  0  0  0  0  0  0  0  0
  1  2  1  0
  2  3  1  0
  2  4  1  0
  2  5  1  0
  5  6  1  0
  5  7  1  0
  5  8  1  0
  8  9  1  0
M  END
$$$$

     RDKit          2D

 21 21  0  0  0  0  0  0  0  0999 V2000
    5.2500   -1.2990    0.0000 C   0  0  0  0  0  0  0  0  0  0  0  0
    3.7500   -1.2990    0.0000 O   0  0  0  0  0  0  0  0  0  0  0  0
    3.0000    0.0000    0.0000 C   0  0  0  0  0  0  0  0  0  0  0  0
    3.7500    1.2990    0.0000 O   0  0  0  0  0  0  0  0  0  0  0  0
    1.5000    0.0000    0.0000 C   0  0  0  0  0  0  0  0  0  0  0  0
    0.7500   -1.2990    0.0000 C   0  0  0  0  0  0  0  0  0  0  0  0
   -0.7500   -1.2990    0.0000 C   0  0  0  0  0  0  0  0  0  0  0  0
   -1.5000    0.0000    0.0000 C   0  0  0  0  0  0  0  0  0  0  0  0
   -0.7500    1.2990    0.0000 C   0  0  0  0  0  0  0  0  0  0  0  0
   -1.5000    2.5981    0.0000 S   0  0  0  0  0  0  0  0  0  0  0  0
   -0.7500    3.8971    0.0000 C   0  0  0  0  0  0  0  0  0  0  0  0
    0.5490    3.1471    0.0000 F   0  0  0  0  0  0  0  0  0  0  0  0
    0.0000    5.1962    0.0000 F   0  0  0  0  0  0  0  0  0  0  0  0
   -2.0490    4.6471    0.0000 C   0  0  0  0  0  0  0  0  0  0  0  0
   -2.7990    3.3481    0.0000 F   0  0  0  0  0  0  0  0  0  0  0  0
   -1.2990    5.9462    0.0000 F   0  0  0  0  0  0  0  0  0  0  0  0
   -3.3481    5.3971    0.0000 C   0  0  0  0  0  0  0  0  0  0  0  0
   -4.6471    6.1471    0.0000 F   0  0  0  0  0  0  0  0  0  0  0  0
   -4.0981    4.0981    0.0000 F   0  0  0  0  0  0  0  0  0  0  0  0
   -2.5981    6.6962    0.0000 F   0  0  0  0  0  0  0  0  0  0  0  0
    0.7500    1.2990    0.0000 C   0  0  0  0  0  0  0  0  0  0  0  0
  1  2  1  0
  2  3  1  0
  3  4  2  0
  3  5  1  0
  5  6  2  0
  6  7  1  0
  7  8  2  0
  8  9  1  0
  9 10  1  0
 10 11  1  0
 11 12  1  0
 11 13  1  0
 11 14  1  0
 14 15  1  0
 14 16  1  0
 14 17  1  0
 17 18  1  0
 17 19  1  0
 17 20  1  0
  9 21  2  0
 21  5  1  0
M  END
$$$$

     RDKit          2D

 22 22  0  0  0  0  0  0  0  0999 V2000
    3.7500    1.2990    0.0000 O   0  0  0  0  0  0  0  0  0  0  0  0
    3.0000    0.0000    0.0000 C   0  0  0  0  0  0  0  0  0  0  0  0
    3.7500   -1.2990    0.0000 O   0  0  0  0  0  0  0  0  0  0  0  0
    1.5000    0.0000    0.0000 C   0  0  0  0  0  0  0  0  0  0  0  0
    0.7500   -1.2990    0.0000 C   0  0  0  0  0  0  0  0  0  0  0  0
   -0.7500   -1.2990    0.0000 C   0  0  0  0  0  0  0  0  0  0  0  0
   -1.5000    0.0000    0.0000 C   0  0  0  0  0  0  0  0  0  0  0  0
   -3.0000    0.0000    0.0000 S   0  0  0  0  0  0  0  0  0  0  0  0
   -2.9028    0.7912    0.0000 O   0  0  0  0  0  0  0  0  0  0  0  0
   -3.0000   -1.5000    0.0000 O   0  0  0  0  0  0  0  0  0  0  0  0
   -4.5000    0.0000    0.0000 C   0  0  0  0  0  0  0  0  0  0  0  0
   -4.5000   -1.5000    0.0000 F   0  0  0  0  0  0  0  0  0  0  0  0
   -6.0000    0.0000    0.0000 F   0  0  0  0  0  0  0  0  0  0  0  0
   -4.5000    1.5000    0.0000 C   0  0  0  0  0  0  0  0  0  0  0  0
   -3.6209    1.6080    0.0000 F   0  0  0  0  0  0  0  0  0  0  0  0
   -6.0000    1.5000    0.0000 F   0  0  0  0  0  0  0  0  0  0  0  0
   -4.5000    3.0000    0.0000 C   0  0  0  0  0  0  0  0  0  0  0  0
   -4.5000    4.5000    0.0000 F   0  0  0  0  0  0  0  0  0  0  0  0
   -6.0000    3.0000    0.0000 F   0  0  0  0  0  0  0  0  0  0  0  0
   -3.0000    3.0000    0.0000 F   0  0  0  0  0  0  0  0  0  0  0  0
   -0.7500    1.2990    0.0000 C   0  0  0  0  0  0  0  0  0  0  0  0
    0.7500    1.2990    0.0000 C   0  0  0  0  0  0  0  0  0  0  0  0
  1  2  2  0
  2  3  1  0
  2  4  1  0
  4  5  2  0
  5  6  1  0
  6  7  2  0
  7  8  1  0
  8  9  2  0
  8 10  2  0
  8 11  1  0
 11 12  1  0
 11 13  1  0
 11 14  1  0
 14 15  1  0
 14 16  1  0
 14 17  1  0
 17 18  1  0
 17 19  1  0
 17 20  1  0
  7 21  1  0
 21 22  2  0
 22  4  1  0
M  END
$$$$

     RDKit          2D

 22 22  0  0  0  0  0  0  0  0999 V2000
    3.7500    1.2990    0.0000 O   0  0  0  0  0  0  0  0  0  0  0  0
    3.0000    0.0000    0.0000 N   0  0  0  0  0  0  0  0  0  0  0  0
    3.7500   -1.2990    0.0000 O   0  0  0  0  0  0  0  0  0  0  0  0
    1.5000    0.0000    0.0000 C   0  0  0  0  0  0  0  0  0  0  0  0
    0.7500   -1.2990    0.0000 C   0  0  0  0  0  0  0  0  0  0  0  0
   -0.7500   -1.2990    0.0000 C   0  0  0  0  0  0  0  0  0  0  0  0
   -1.5000    0.0000    0.0000 C   0  0  0  0  0  0  0  0  0  0  0  0
   -0.7500    1.2990    0.0000 C   0  0  0  0  0  0  0  0  0  0  0  0
   -1.5000    2.5981    0.0000 C   0  0  0  0  0  0  0  0  0  0  0  0
   -0.2010    3.3481    0.0000 F   0  0  0  0  0  0  0  0  0  0  0  0
   -2.7990    1.8481    0.0000 F   0  0  0  0  0  0  0  0  0  0  0  0
   -2.2500    3.8971    0.0000 C   0  0  0  0  0  0  0  0  0  0  0  0
   -3.5490    3.1471    0.0000 F   0  0  0  0  0  0  0  0  0  0  0  0
   -0.9510    4.6471    0.0000 F   0  0  0  0  0  0  0  0  0  0  0  0
   -3.0000    5.1962    0.0000 C   0  0  0  0  0  0  0  0  0  0  0  0
   -1.7010    5.9462    0.0000 F   0  0  0  0  0  0  0  0  0  0  0  0
   -4.2990    4.4462    0.0000 F   0  0  0  0  0  0  0  0  0  0  0  0
   -3.7500    6.4952    0.0000 C   0  0  0  0  0  0  0  0  0  0  0  0
   -4.5000    7.7942    0.0000 F   0  0  0  0  0  0  0  0  0  0  0  0
   -5.0490    5.7452    0.0000 F   0  0  0  0  0  0  0  0  0  0  0  0
   -2.4510    7.2452    0.0000 Cl  0  0  0  0  0  0  0  0  0  0  0  0
    0.7500    1.2990    0.0000 C   0  0  0  0  0  0  0  0  0  0  0  0
  1  2  2  0
  2  3  1  0
  2  4  1  0
  4  5  2  0
  5  6  1  0
  6  7  2  0
  7  8  1  0
  8  9  1  0
  9 10  1  0
  9 11  1  0
  9 12  1  0
 12 13  1  0
 12 14  1  0
 12 15  1  0
 15 16  1  0
 15 17  1  0
 15 18  1  0
 18 19  1  0
 18 20  1  0
 18 21  1  0
  8 22  2  0
 22  4  1  0
M  CHG  2   2   1   3  -1
M  END
$$$$

     RDKit          2D

 28 27  0  0  0  0  0  0  0  0999 V2000
    0.0000    0.0000    0.0000 C   0  0  0  0  0  0  0  0  0  0  0  0
    1.2990    0.7500    0.0000 C   0  0  0  0  0  0  0  0  0  0  0  0
    2.5981   -0.0000    0.0000 O   0  0  0  0  0  0  0  0  0  0  0  0
    3.8971    0.7500    0.0000 Si  0  0  0  0  0  4  0  0  0  0  0  0
    5.1962    1.5000    0.0000 C   0  0  0  0  0  0  0  0  0  0  0  0
    5.1962    3.0000    0.0000 C   0  0  0  0  0  0  0  0  0  0  0  0
    6.4952    3.7500    0.0000 C   0  0  0  0  0  0  0  0  0  0  0  0
    5.7452    5.0490    0.0000 F   0  0  0  0  0  0  0  0  0  0  0  0
    7.2452    2.4510    0.0000 F   0  0  0  0  0  0  0  0  0  0  0  0
    7.7942    4.5000    0.0000 C   0  0  0  0  0  0  0  0  0  0  0  0
    8.5442    3.2010    0.0000 F   0  0  0  0  0  0  0  0  0  0  0  0
    7.0442    5.7990    0.0000 F   0  0  0  0  0  0  0  0  0  0  0  0
    9.0933    5.2500    0.0000 C   0  0  0  0  0  0  0  0  0  0  0  0
    8.3433    6.5490    0.0000 F   0  0  0  0  0  0  0  0  0  0  0  0
    9.8433    3.9510    0.0000 F   0  0  0  0  0  0  0  0  0  0  0  0
   10.3923    6.0000    0.0000 C   0  0  0  0  0  0  0  0  0  0  0  0
   11.1423    4.7010    0.0000 F   0  0  0  0  0  0  0  0  0  0  0  0
    9.6423    7.2990    0.0000 F   0  0  0  0  0  0  0  0  0  0  0  0
   11.6913    6.7500    0.0000 C   0  0  0  0  0  0  0  0  0  0  0  0
   12.9904    7.5000    0.0000 F   0  0  0  0  0  0  0  0  0  0  0  0
   10.9413    8.0490    0.0000 F   0  0  0  0  0  0  0  0  0  0  0  0
   12.4413    5.4510    0.0000 F   0  0  0  0  0  0  0  0  0  0  0  0
    3.1471    2.0490    0.0000 O   0  0  0  0  0  0  0  0  0  0  0  0
    3.8971    3.3481    0.0000 C   0  0  0  0  0  0  0  0  0  0  0  0
    3.1471    4.6471    0.0000 C   0  0  0  0  0  0  0  0  0  0  0  0
    4.6471   -0.5490    0.0000 O   0  0  0  0  0  0  0  0  0  0  0  0
    6.1471   -0.5490    0.0000 C   0  0  0  0  0  0  0  0  0  0  0  0
    6.8971   -1.8481    0.0000 C   0  0  0  0  0  0  0  0  0  0  0  0
  1  2  1  0
  2  3  1  0
  3  4  1  0
  4  5  1  0
  5  6  1  0
  6  7  1  0
  7  8  1  0
  7  9  1  0
  7 10  1  0
 10 11  1  0
 10 12  1  0
 10 13  1  0
 13 14  1  0
 13 15  1  0
 13 16  1  0
 16 17  1  0
 16 18  1  0
 16 19  1  0
 19 20  1  0
 19 21  1  0
 19 22  1  0
  4 23  1  0
 23 24  1  0
 24 25  1  0
  4 26  1  0
 26 27  1  0
 27 28  1  0
M  END
$$$$

     RDKit          2D

 19 18  0  0  0  0  0  0  0  0999 V2000
    0.0000    0.0000    0.0000 C   0  0  0  0  0  0  0  0  0  0  0  0
    1.2990    0.7500    0.0000 C   0  0  0  0  0  0  0  0  0  0  0  0
    1.2990    2.2500    0.0000 O   0  0  0  0  0  0  0  0  0  0  0  0
    2.5981   -0.0000    0.0000 C   0  0  0  0  0  0  0  0  0  0  0  0
    3.3481    1.2990    0.0000 F   0  0  0  0  0  0  0  0  0  0  0  0
    1.8481   -1.2990    0.0000 F   0  0  0  0  0  0  0  0  0  0  0  0
    3.8971   -0.7500    0.0000 C   0  0  0  0  0  0  0  0  0  0  0  0
    3.1471   -2.0490    0.0000 F   0  0  0  0  0  0  0  0  0  0  0  0
    4.6471    0.5490    0.0000 F   0  0  0  0  0  0  0  0  0  0  0  0
    5.1962   -1.5000    0.0000 C   0  0  0  0  0  0  0  0  0  0  0  0
    5.9462   -0.2010    0.0000 F   0  0  0  0  0  0  0  0  0  0  0  0
    4.4462   -2.7990    0.0000 F   0  0  0  0  0  0  0  0  0  0  0  0
    6.4952   -2.2500    0.0000 C   0  0  0  0  0  0  0  0  0  0  0  0
    5.7452   -3.5490    0.0000 F   0  0  0  0  0  0  0  0  0  0  0  0
    7.2452   -0.9510    0.0000 F   0  0  0  0  0  0  0  0  0  0  0  0
    7.7942   -3.0000    0.0000 C   0  0  0  0  0  0  0  0  0  0  0  0
    9.0933   -3.7500    0.0000 F   0  0  0  0  0  0  0  0  0  0  0  0
    8.5442   -1.7010    0.0000 F   0  0  0  0  0  0  0  0  0  0  0  0
    7.0442   -4.2990    0.0000 F   0  0  0  0  0  0  0  0  0  0  0  0
  1  2  1  0
  2  3  2  0
  2  4  1  0
  4  5  1  0
  4  6  1  0
  4  7  1  0
  7  8  1  0
  7  9  1  0
  7 10  1  0
 10 11  1  0
 10 12  1  0
 10 13  1  0
 13 14  1  0
 13 15  1  0
 13 16  1  0
 16 17  1  0
 16 18  1  0
 16 19  1  0
M  END
$$$$

     RDKit          2D

 17 16  0  0  0  0  0  0  0  0999 V2000
   -5.3971    1.8481    0.0000 O   0  0  0  0  0  0  0  0  0  0  0  0
   -4.6471    0.5490    0.0000 S   0  0  0  0  0  0  0  0  0  0  0  0
   -5.9462   -0.2010    0.0000 O   0  0  0  0  0  0  0  0  0  0  0  0
   -4.0105    1.0288    0.0000 F   0  0  0  0  0  0  0  0  0  0  0  0
   -3.8971   -0.7500    0.0000 C   0  0  0  0  0  0  0  0  0  0  0  0
   -5.1962   -1.5000    0.0000 F   0  0  0  0  0  0  0  0  0  0  0  0
   -3.1471   -2.0490    0.0000 F   0  0  0  0  0  0  0  0  0  0  0  0
   -2.5981    0.0000    0.0000 C   0  0  0  0  0  0  0  0  0  0  0  0
   -1.8481   -1.2990    0.0000 F   0  0  0  0  0  0  0  0  0  0  0  0
   -2.9441    0.8153    0.0000 F   0  0  0  0  0  0  0  0  0  0  0  0
   -1.2990    0.7500    0.0000 O   0  0  0  0  0  0  0  0  0  0  0  0
    0.0000    0.0000    0.0000 C   0  0  0  0  0  0  0  0  0  0  0  0
   -0.0000   -1.5000    0.0000 F   0  0  0  0  0  0  0  0  0  0  0  0
    1.2990    0.7500    0.0000 C   0  0  0  0  0  0  0  0  0  0  0  0
    2.5981    1.5000    0.0000 F   0  0  0  0  0  0  0  0  0  0  0  0
    2.0490   -0.5490    0.0000 F   0  0  0  0  0  0  0  0  0  0  0  0
    0.5490    2.0490    0.0000 F   0  0  0  0  0  0  0  0  0  0  0  0
  1  2  2  0
  2  3  2  0
  2  4  1  0
  2  5  1  0
  5  6  1  0
  5  7  1  0
  5  8  1  0
  8  9  1  0
  8 10  1  0
  8 11  1  0
 11 12  1  0
 12 13  1  0
 12 14  1  0
 14 15  1  0
 14 16  1  0
 14 17  1  0
M  END
$$$$

     RDKit          2D

 35 35  0  0  0  0  0  0  0  0999 V2000
    3.7500   -1.2990    0.0000 N   0  0  0  0  0  0  0  0  0  0  0  0
    3.0000    0.0000    0.0000 C   0  0  0  0  0  0  0  0  0  0  0  0
    1.5000    0.0000    0.0000 C   0  0  0  0  0  0  0  0  0  0  0  0
    0.7500   -1.2990    0.0000 C   0  0  0  0  0  0  0  0  0  0  0  0
   -0.7500   -1.2990    0.0000 C   0  0  0  0  0  0  0  0  0  0  0  0
   -1.5000    0.0000    0.0000 C   0  0  0  0  0  0  0  0  0  0  0  0
   -3.0000    0.0000    0.0000 C   0  0  0  0  0  0  0  0  0  0  0  0
   -3.7500    1.2990    0.0000 C   0  0  0  0  0  0  0  0  0  0  0  0
   -5.2500    1.2990    0.0000 C   0  0  0  0  0  0  0  0  0  0  0  0
   -5.2500    2.7990    0.0000 F   0  0  0  0  0  0  0  0  0  0  0  0
   -5.2500   -0.2010    0.0000 F   0  0  0  0  0  0  0  0  0  0  0  0
   -6.7500    1.2990    0.0000 C   0  0  0  0  0  0  0  0  0  0  0  0
   -6.7500   -0.2010    0.0000 F   0  0  0  0  0  0  0  0  0  0  0  0
   -6.7500    2.7990    0.0000 F   0  0  0  0  0  0  0  0  0  0  0  0
   -8.2500    1.2990    0.0000 C   0  0  0  0  0  0  0  0  0  0  0  0
   -8.2500    2.7990    0.0000 F   0  0  0  0  0  0  0  0  0  0  0  0
   -8.2500   -0.2010    0.0000 F   0  0  0  0  0  0  0  0  0  0  0  0
   -9.7500    1.2990    0.0000 C   0  0  0  0  0  0  0  0  0  0  0  0
   -9.7500   -0.2010    0.0000 F   0  0  0  0  0  0  0  0  0  0  0  0
   -9.7500    2.7990    0.0000 F   0  0  0  0  0  0  0  0  0  0  0  0
  -11.2500    1.2990    0.0000 C   0  0  0  0  0  0  0  0  0  0  0  0
  -11.2500    2.7990    0.0000 F   0  0  0  0  0  0  0  0  0  0  0  0
  -11.2500   -0.2010    0.0000 F   0  0  0  0  0  0  0  0  0  0  0  0
  -12.7500    1.2990    0.0000 C   0  0  0  0  0  0  0  0  0  0  0  0
  -12.7500   -0.2010    0.0000 F   0  0  0  0  0  0  0  0  0  0  0  0
  -12.7500    2.7990    0.0000 F   0  0  0  0  0  0  0  0  0  0  0  0
  -14.2500    1.2990    0.0000 C   0  0  0  0  0  0  0  0  0  0  0  0
  -14.2500    2.7990    0.0000 F   0  0  0  0  0  0  0  0  0  0  0  0
  -14.2500   -0.2010    0.0000 F   0  0  0  0  0  0  0  0  0  0  0  0
  -15.7500    1.2990    0.0000 C   0  0  0  0  0  0  0  0  0  0  0  0
  -17.2500    1.2990    0.0000 F   0  0  0  0  0  0  0  0  0  0  0  0
  -15.7500   -0.2010    0.0000 F   0  0  0  0  0  0  0  0  0  0  0  0
  -15.7500    2.7990    0.0000 F   0  0  0  0  0  0  0  0  0  0  0  0
   -0.7500    1.2990    0.0000 C   0  0  0  0  0  0  0  0  0  0  0  0
    0.7500    1.2990    0.0000 C   0  0  0  0  0  0  0  0  0  0  0  0
  1  2  1  0
  2  3  1  0
  3  4  2  0
  4  5  1  0
  5  6  2  0
  6  7  1  0
  7  8  1  0
  8  9  1  0
  9 10  1  0
  9 11  1  0
  9 12  1  0
 12 13  1  0
 12 14  1  0
 12 15  1  0
 15 16  1  0
 15 17  1  0
 15 18  1  0
 18 19  1  0
 18 20  1  0
 18 21  1  0
 21 22  1  0
 21 23  1  0
 21 24  1  0
 24 25  1  0
 24 26  1  0
 24 27  1  0
 27 28  1  0
 27 29  1  0
 27 30  1  0
 30 31  1  0
 30 32  1  0
 30 33  1  0
  6 34  1  0
 34 35  2  0
 35  3  1  0
M  END
$$$$

     RDKit          2D

 22 21  0  0  0  0  0  0  0  0999 V2000
    0.0000    0.0000    0.0000 C   0  0  0  0  0  0  0  0  0  0  0  0
    1.2990    0.7500    0.0000 C   0  0  0  0  0  0  0  0  0  0  0  0
    2.5981   -0.0000    0.0000 C   0  0  0  0  0  0  0  0  0  0  0  0
    1.2990    2.2500    0.0000 Si  0  0  0  0  0  4  0  0  0  0  0  0
    2.5981    3.0000    0.0000 C   0  0  0  0  0  0  0  0  0  0  0  0
    2.5981    4.5000    0.0000 C   0  0  0  0  0  0  0  0  0  0  0  0
    3.8971    5.2500    0.0000 C   0  0  0  0  0  0  0  0  0  0  0  0
    3.1471    6.5490    0.0000 F   0  0  0  0  0  0  0  0  0  0  0  0
    4.6471    3.9510    0.0000 F   0  0  0  0  0  0  0  0  0  0  0  0
    5.1962    6.0000    0.0000 C   0  0  0  0  0  0  0  0  0  0  0  0
    5.9462    4.7010    0.0000 F   0  0  0  0  0  0  0  0  0  0  0  0
    4.4462    7.2990    0.0000 F   0  0  0  0  0  0  0  0  0  0  0  0
    6.4952    6.7500    0.0000 C   0  0  0  0  0  0  0  0  0  0  0  0
    5.7452    8.0490    0.0000 F   0  0  0  0  0  0  0  0  0  0  0  0
    7.2452    5.4510    0.0000 F   0  0  0  0  0  0  0  0  0  0  0  0
    7.7942    7.5000    0.0000 C   0  0  0  0  0  0  0  0  0  0  0  0
    9.0933    8.2500    0.0000 F   0  0  0  0  0  0  0  0  0  0  0  0
    8.5442    6.2010    0.0000 F   0  0  0  0  0  0  0  0  0  0  0  0
    7.0442    8.7990    0.0000 F   0  0  0  0  0  0  0  0  0  0  0  0
    0.0000    3.0000    0.0000 C   0  0  0  0  0  0  0  0  0  0  0  0
    0.0000    4.5000    0.0000 C   0  0  0  0  0  0  0  0  0  0  0  0
   -1.2990    2.2500    0.0000 C   0  0  0  0  0  0  0  0  0  0  0  0
  1  2  1  0
  2  3  1  0
  2  4  1  0
  4  5  1  0
  5  6  1  0
  6  7  1  0
  7  8  1  0
  7  9  1  0
  7 10  1  0
 10 11  1  0
 10 12  1  0
 10 13  1  0
 13 14  1  0
 13 15  1  0
 13 16  1  0
 16 17  1  0
 16 18  1  0
 16 19  1  0
  4 20  1  0
 20 21  1  0
 20 22  1  0
M  END
$$$$

     RDKit          2D

 27 26  0  0  0  0  0  0  0  0999 V2000
    0.1828   -1.4888    0.0000 F   0  0  0  0  0  0  0  0  0  0  0  0
    0.0000    0.0000    0.0000 C   0  0  0  0  0  0  0  0  0  0  0  0
    1.2990    0.7500    0.0000 C   0  0  0  0  0  0  0  0  0  0  0  0
    1.2990    2.2500    0.0000 C   0  0  0  0  0  0  0  0  0  0  0  0
    1.2990    3.7500    0.0000 F   0  0  0  0  0  0  0  0  0  0  0  0
    2.0903    2.3472    0.0000 F   0  0  0  0  0  0  0  0  0  0  0  0
   -0.1898    2.4328    0.0000 F   0  0  0  0  0  0  0  0  0  0  0  0
    2.5981   -0.0000    0.0000 C   0  0  0  0  0  0  0  0  0  0  0  0
    1.8481   -1.2990    0.0000 F   0  0  0  0  0  0  0  0  0  0  0  0
    3.8971   -0.7500    0.0000 C   0  0  0  0  0  0  0  0  0  0  0  0
    5.1962   -1.5000    0.0000 F   0  0  0  0  0  0  0  0  0  0  0  0
    3.1471   -2.0490    0.0000 F   0  0  0  0  0  0  0  0  0  0  0  0
    4.4302   -0.0426    0.0000 F   0  0  0  0  0  0  0  0  0  0  0  0
    3.3481    1.2990    0.0000 C   0  0  0  0  0  0  0  0  0  0  0  0
    4.0981    2.5981    0.0000 F   0  0  0  0  0  0  0  0  0  0  0  0
    4.1634    0.9530    0.0000 F   0  0  0  0  0  0  0  0  0  0  0  0
    2.8465    1.9186    0.0000 F   0  0  0  0  0  0  0  0  0  0  0  0
   -1.2990    0.7500    0.0000 C   0  0  0  0  0  0  0  0  0  0  0  0
   -0.7130    2.1308    0.0000 F   0  0  0  0  0  0  0  0  0  0  0  0
   -2.5981    1.5000    0.0000 C   0  0  0  0  0  0  0  0  0  0  0  0
   -3.8971    2.2500    0.0000 F   0  0  0  0  0  0  0  0  0  0  0  0
   -1.8481    2.7990    0.0000 F   0  0  0  0  0  0  0  0  0  0  0  0
   -3.5008    0.3021    0.0000 F   0  0  0  0  0  0  0  0  0  0  0  0
   -2.0490   -0.5490    0.0000 C   0  0  0  0  0  0  0  0  0  0  0  0
   -2.7990   -1.8481    0.0000 F   0  0  0  0  0  0  0  0  0  0  0  0
   -3.4298    0.0370    0.0000 F   0  0  0  0  0  0  0  0  0  0  0  0
   -0.8511   -1.4518    0.0000 F   0  0  0  0  0  0  0  0  0  0  0  0
  1  2  1  0
  2  3  2  3
  3  4  1  0
  4  5  1  0
  4  6  1  0
  4  7  1  0
  3  8  1  0
  8  9  1  0
  8 10  1  0
 10 11  1  0
 10 12  1  0
 10 13  1  0
  8 14  1  0
 14 15  1  0
 14 16  1  0
 14 17  1  0
  2 18  1  0
 18 19  1  0
 18 20  1  0
 20 21  1  0
 20 22  1  0
 20 23  1  0
 18 24  1  0
 24 25  1  0
 24 26  1  0
 24 27  1  0
M  END
$$$$

     RDKit          2D

 29 28  0  0  0  0  0  0  0  0999 V2000
    3.5260   -1.2990    0.0000 C   0  0  0  0  0  0  0  0  0  0  0  0
    2.7760    0.0000    0.0000 C   0  0  0  0  0  0  0  0  0  0  0  0
    1.2760    0.0000    0.0000 N   0  0  0  0  0  0  0  0  0  0  0  0
    0.3943    1.2135    0.0000 C   0  0  0  0  0  0  0  0  0  0  0  0
   -1.0323    0.7500    0.0000 C   0  0  0  0  0  0  0  0  0  0  0  0
   -1.0323   -0.7500    0.0000 N   0  0  0  0  0  0  0  0  0  0  0  0
   -2.2458   -1.6317    0.0000 C   0  0  0  0  0  0  0  0  0  0  0  0
    0.3943   -1.2135    0.0000 C   0  0  0  0  0  0  0  0  0  0  0  0
   -1.8851    5.6433    0.0000 O   0  0  0  0  0  0  0  0  0  0  0  0
   -1.2990    4.2626    0.0000 S   0  0  0  0  0  0  0  0  0  0  0  0
   -0.5490    2.9635    0.0000 O   0  0  0  0  0  0  0  0  0  0  0  0
   -0.0000    5.0126    0.0000 N   0  0  0  0  0  0  0  0  0  0  0  0
   -0.0000    6.5126    0.0000 S   0  0  0  0  0  0  0  0  0  0  0  0
   -1.5000    6.5126    0.0000 O   0  0  0  0  0  0  0  0  0  0  0  0
    0.7912    6.4154    0.0000 O   0  0  0  0  0  0  0  0  0  0  0  0
   -0.0000    8.0126    0.0000 C   0  0  0  0  0  0  0  0  0  0  0  0
   -1.5000    8.0126    0.0000 F   0  0  0  0  0  0  0  0  0  0  0  0
    0.0000    9.5126    0.0000 F   0  0  0  0  0  0  0  0  0  0  0  0
    1.5000    8.0126    0.0000 C   0  0  0  0  0  0  0  0  0  0  0  0
    3.0000    8.0126    0.0000 F   0  0  0  0  0  0  0  0  0  0  0  0
    1.6080    7.1334    0.0000 F   0  0  0  0  0  0  0  0  0  0  0  0
    1.5000    9.5126    0.0000 F   0  0  0  0  0  0  0  0  0  0  0  0
   -2.5981    3.5126    0.0000 C   0  0  0  0  0  0  0  0  0  0  0  0
   -1.8481    2.2135    0.0000 F   0  0  0  0  0  0  0  0  0  0  0  0
   -3.8971    2.7626    0.0000 F   0  0  0  0  0  0  0  0  0  0  0  0
   -3.3481    4.8116    0.0000 C   0  0  0  0  0  0  0  0  0  0  0  0
   -4.0981    6.1106    0.0000 F   0  0  0  0  0  0  0  0  0  0  0  0
   -4.6471    4.0616    0.0000 F   0  0  0  0  0  0  0  0  0  0  0  0
   -2.1501    5.7144    0.0000 F   0  0  0  0  0  0  0  0  0  0  0  0
  1  2  1  0
  2  3  1  0
  3  4  1  0
  4  5  2  0
  5  6  1  0
  6  7  1  0
  6  8  2  0
  9 10  2  0
 10 11  2  0
 10 12  1  0
 12 13  1  0
 13 14  2  0
 13 15  2  0
 13 16  1  0
 16 17  1  0
 16 18  1  0
 16 19  1  0
 19 20  1  0
 19 21  1  0
 19 22  1  0
 10 23  1  0
 23 24  1  0
 23 25  1  0
 23 26  1  0
 26 27  1  0
 26 28  1  0
 26 29  1  0
  8  3  1  0
M  CHG  2   6   1  12  -1
M  END
$$$$

     RDKit          2D

 49 51  0  0  0  0  0  0  0  0999 V2000
    3.7500   -1.2990    0.0000 C   0  0  0  0  0  0  0  0  0  0  0  0
    3.0000    0.0000    0.0000 O   0  0  0  0  0  0  0  0  0  0  0  0
    1.5000    0.0000    0.0000 C   0  0  0  0  0  0  0  0  0  0  0  0
    0.7500   -1.2990    0.0000 C   0  0  0  0  0  0  0  0  0  0  0  0
   -0.7500   -1.2990    0.0000 C   0  0  0  0  0  0  0  0  0  0  0  0
   -1.5000    0.0000    0.0000 C   0  0  0  0  0  0  0  0  0  0  0  0
   -3.0000    0.0000    0.0000 C   0  0  0  0  0  0  0  0  0  0  0  0
   -4.5000    0.0000    0.0000 Cl  0  0  0  0  0  0  0  0  0  0  0  0
   -3.0000   -1.5000    0.0000 C   0  0  0  0  0  0  0  0  0  0  0  0
   -4.2990   -2.2500    0.0000 C   0  0  0  0  0  0  0  0  0  0  0  0
   -4.2990   -3.7500    0.0000 C   0  0  0  0  0  0  0  0  0  0  0  0
   -3.0000   -4.5000    0.0000 C   0  0  0  0  0  0  0  0  0  0  0  0
   -1.7010   -3.7500    0.0000 C   0  0  0  0  0  0  0  0  0  0  0  0
   -1.7010   -2.2500    0.0000 C   0  0  0  0  0  0  0  0  0  0  0  0
   -3.0000    1.5000    0.0000 C   0  0  0  0  0  0  0  0  0  0  0  0
   -1.7010    2.2500    0.0000 C   0  0  0  0  0  0  0  0  0  0  0  0
   -1.7010    3.7500    0.0000 C   0  0  0  0  0  0  0  0  0  0  0  0
   -3.0000    4.5000    0.0000 C   0  0  0  0  0  0  0  0  0  0  0  0
   -3.0000    6.0000    0.0000 C   0  0  0  0  0  0  0  0  0  0  0  0
   -1.7010    6.7500    0.0000 C   0  0  0  0  0  0  0  0  0  0  0  0
   -1.7010    8.2500    0.0000 C   0  0  0  0  0  0  0  0  0  0  0  0
   -0.2010    8.2500    0.0000 F   0  0  0  0  0  0  0  0  0  0  0  0
   -3.2010    8.2500    0.0000 F   0  0  0  0  0  0  0  0  0  0  0  0
   -1.7010    9.7500    0.0000 C   0  0  0  0  0  0  0  0  0  0  0  0
   -3.2010    9.7500    0.0000 F   0  0  0  0  0  0  0  0  0  0  0  0
   -0.2010    9.7500    0.0000 F   0  0  0  0  0  0  0  0  0  0  0  0
   -1.7010   11.2500    0.0000 C   0  0  0  0  0  0  0  0  0  0  0  0
   -0.2010   11.2500    0.0000 F   0  0  0  0  0  0  0  0  0  0  0  0
   -3.2010   11.2500    0.0000 F   0  0  0  0  0  0  0  0  0  0  0  0
   -1.7010   12.7500    0.0000 C   0  0  0  0  0  0  0  0  0  0  0  0
   -3.2010   12.7500    0.0000 F   0  0  0  0  0  0  0  0  0  0  0  0
   -0.2010   12.7500    0.0000 F   0  0  0  0  0  0  0  0  0  0  0  0
   -1.7010   14.2500    0.0000 C   0  0  0  0  0  0  0  0  0  0  0  0
   -0.2010   14.2500    0.0000 F   0  0  0  0  0  0  0  0  0  0  0  0
   -3.2010   14.2500    0.0000 F   0  0  0  0  0  0  0  0  0  0  0  0
   -1.7010   15.7500    0.0000 C   0  0  0  0  0  0  0  0  0  0  0  0
   -3.2010   15.7500    0.0000 F   0  0  0  0  0  0  0  0  0  0  0  0
   -0.2010   15.7500    0.0000 F   0  0  0  0  0  0  0  0  0  0  0  0
   -1.7010   17.2500    0.0000 C   0  0  0  0  0  0  0  0  0  0  0  0
   -0.2010   17.2500    0.0000 F   0  0  0  0  0  0  0  0  0  0  0  0
   -3.2010   17.2500    0.0000 F   0  0  0  0  0  0  0  0  0  0  0  0
   -1.7010   18.7500    0.0000 C   0  0  0  0  0  0  0  0  0  0  0  0
   -1.7010   20.2500    0.0000 F   0  0  0  0  0  0  0  0  0  0  0  0
   -3.2010   18.7500    0.0000 F   0  0  0  0  0  0  0  0  0  0  0  0
   -0.2010   18.7500    0.0000 F   0  0  0  0  0  0  0  0  0  0  0  0
   -4.2990    3.7500    0.0000 C   0  0  0  0  0  0  0  0  0  0  0  0
   -4.2990    2.2500    0.0000 C   0  0  0  0  0  0  0  0  0  0  0  0
   -0.7500    1.2990    0.0000 C   0  0  0  0  0  0  0  0  0  0  0  0
    0.7500    1.2990    0.0000 C   0  0  0  0  0  0  0  0  0  0  0  0
  1  2  1  0
  2  3  1  0
  3  4  2  0
  4  5  1  0
  5  6  2  0
  6  7  1  0
  7  8  1  0
  7  9  1  0
  9 10  2  0
 10 11  1  0
 11 12  2  0
 12 13  1  0
 13 14  2  0
  7 15  1  0
 15 16  2  0
 16 17  1  0
 17 18  2  0
 18 19  1  0
 19 20  1  0
 20 21  1  0
 21 22  1  0
 21 23  1  0
 21 24  1  0
 24 25  1  0
 24 26  1  0
 24 27  1  0
 27 28  1  0
 27 29  1  0
 27 30  1  0
 30 31  1  0
 30 32  1  0
 30 33  1  0
 33 34  1  0
 33 35  1  0
 33 36  1  0
 36 37  1  0
 36 38  1  0
 36 39  1  0
 39 40  1  0
 39 41  1  0
 39 42  1  0
 42 43  1  0
 42 44  1  0
 42 45  1  0
 18 46  1  0
 46 47  2  0
  6 48  1  0
 48 49  2  0
 49  3  1  0
 14  9  1  0
 47 15  1  0
M  END
$$$$

     RDKit          2D

 37 36  0  0  0  0  0  0  0  0999 V2000
    5.7760   -2.5981    0.0000 C   0  0  0  0  0  0  0  0  0  0  0  0
    5.0260   -1.2990    0.0000 C   0  0  0  0  0  0  0  0  0  0  0  0
    3.5260   -1.2990    0.0000 C   0  0  0  0  0  0  0  0  0  0  0  0
    2.7760    0.0000    0.0000 C   0  0  0  0  0  0  0  0  0  0  0  0
    1.2760    0.0000    0.0000 N   0  0  0  0  0  0  0  0  0  0  0  0
    0.3943    1.2135    0.0000 C   0  0  0  0  0  0  0  0  0  0  0  0
   -1.0323    0.7500    0.0000 C   0  0  0  0  0  0  0  0  0  0  0  0
   -1.0323   -0.7500    0.0000 N   0  0  0  0  0  0  0  0  0  0  0  0
   -2.2458   -1.6317    0.0000 C   0  0  0  0  0  0  0  0  0  0  0  0
   -3.6161   -1.0216    0.0000 C   0  0  0  0  0  0  0  0  0  0  0  0
   -4.8297   -1.9033    0.0000 C   0  0  0  0  0  0  0  0  0  0  0  0
   -5.7113   -0.6897    0.0000 F   0  0  0  0  0  0  0  0  0  0  0  0
   -3.9480   -3.1168    0.0000 F   0  0  0  0  0  0  0  0  0  0  0  0
   -6.0432   -2.7849    0.0000 C   0  0  0  0  0  0  0  0  0  0  0  0
   -5.1615   -3.9985    0.0000 F   0  0  0  0  0  0  0  0  0  0  0  0
   -6.9249   -1.5714    0.0000 F   0  0  0  0  0  0  0  0  0  0  0  0
   -7.2567   -3.6666    0.0000 C   0  0  0  0  0  0  0  0  0  0  0  0
   -8.1384   -2.4531    0.0000 F   0  0  0  0  0  0  0  0  0  0  0  0
   -6.3750   -4.8801    0.0000 F   0  0  0  0  0  0  0  0  0  0  0  0
   -8.4702   -4.5483    0.0000 C   0  0  0  0  0  0  0  0  0  0  0  0
   -7.5886   -5.7618    0.0000 F   0  0  0  0  0  0  0  0  0  0  0  0
   -9.3519   -3.3348    0.0000 F   0  0  0  0  0  0  0  0  0  0  0  0
   -9.6838   -5.4300    0.0000 C   0  0  0  0  0  0  0  0  0  0  0  0
  -10.5654   -4.2164    0.0000 F   0  0  0  0  0  0  0  0  0  0  0  0
   -8.8021   -6.6435    0.0000 F   0  0  0  0  0  0  0  0  0  0  0  0
  -10.8973   -6.3116    0.0000 C   0  0  0  0  0  0  0  0  0  0  0  0
  -12.1108   -7.1933    0.0000 F   0  0  0  0  0  0  0  0  0  0  0  0
  -10.0156   -7.5252    0.0000 F   0  0  0  0  0  0  0  0  0  0  0  0
  -11.7790   -5.0981    0.0000 F   0  0  0  0  0  0  0  0  0  0  0  0
    0.3943   -1.2135    0.0000 C   0  0  0  0  0  0  0  0  0  0  0  0
    0.0000    2.9635    0.0000 F   0  0  0  0  0  0  0  0  0  0  0  0
    1.2990    3.7135    0.0000 P   0  0  0  0  0  6  0  0  0  0  0  0
    1.2990    2.2135    0.0000 F   0  0  0  0  0  0  0  0  0  0  0  0
    2.5981    2.9635    0.0000 F   0  0  0  0  0  0  0  0  0  0  0  0
    1.2990    5.2135    0.0000 F   0  0  0  0  0  0  0  0  0  0  0  0
    2.5981    4.4635    0.0000 F   0  0  0  0  0  0  0  0  0  0  0  0
    0.0000    4.4635    0.0000 F   0  0  0  0  0  0  0  0  0  0  0  0
  1  2  1  0
  2  3  1  0
  3  4  1  0
  4  5  1  0
  5  6  1  0
  6  7  2  0
  7  8  1  0
  8  9  1  0
  9 10  1  0
 10 11  1  0
 11 12  1  0
 11 13  1  0
 11 14  1  0
 14 15  1  0
 14 16  1  0
 14 17  1  0
 17 18  1  0
 17 19  1  0
 17 20  1  0
 20 21  1  0
 20 22  1  0
 20 23  1  0
 23 24  1  0
 23 25  1  0
 23 26  1  0
 26 27  1  0
 26 28  1  0
 26 29  1  0
  8 30  1  0
 31 32  1  0
 32 33  1  0
 32 34  1  0
 32 35  1  0
 32 36  1  0
 32 37  1  0
 30  5  2  0
M  CHG  2   5   1  32  -1
M  END
$$$$

     RDKit          2D

 21 23  0  0  0  0  0  0  0  0999 V2000
    2.3907    1.0037    0.0000 F   0  0  0  0  0  0  0  0  0  0  0  0
    1.2760    0.0000    0.0000 C   0  0  0  0  0  0  0  0  0  0  0  0
    2.3907   -1.0037    0.0000 F   0  0  0  0  0  0  0  0  0  0  0  0
    0.3943    1.2135    0.0000 C   0  0  0  0  0  0  0  0  0  0  0  0
    0.8578    2.6401    0.0000 C   0  0  0  0  0  0  0  0  0  0  0  0
   -0.0239    3.8536    0.0000 C   0  0  0  0  0  0  0  0  0  0  0  0
    0.8578    5.0672    0.0000 C   0  0  0  0  0  0  0  0  0  0  0  0
    2.2844    4.6036    0.0000 C   0  0  0  0  0  0  0  0  0  0  0  0
    2.2844    3.1036    0.0000 S   0  0  0  0  0  0  0  0  0  0  0  0
   -1.0323    0.7500    0.0000 C   0  0  0  0  0  0  0  0  0  0  0  0
   -2.2458    1.6317    0.0000 C   0  0  0  0  0  0  0  0  0  0  0  0
   -3.6724    1.1682    0.0000 C   0  0  0  0  0  0  0  0  0  0  0  0
   -4.5541    2.3817    0.0000 C   0  0  0  0  0  0  0  0  0  0  0  0
   -3.6724    3.5952    0.0000 C   0  0  0  0  0  0  0  0  0  0  0  0
   -2.2458    3.1317    0.0000 S   0  0  0  0  0  0  0  0  0  0  0  0
   -1.0323   -0.7500    0.0000 C   0  0  0  0  0  0  0  0  0  0  0  0
   -1.3442   -2.2172    0.0000 F   0  0  0  0  0  0  0  0  0  0  0  0
   -2.5241   -0.5932    0.0000 F   0  0  0  0  0  0  0  0  0  0  0  0
    0.3943   -1.2135    0.0000 C   0  0  0  0  0  0  0  0  0  0  0  0
    1.6933   -1.9635    0.0000 F   0  0  0  0  0  0  0  0  0  0  0  0
   -0.2158   -2.5838    0.0000 F   0  0  0  0  0  0  0  0  0  0  0  0
  1  2  1  0
  2  3  1  0
  2  4  1  0
  4  5  1  0
  5  6  2  0
  6  7  1  0
  7  8  2  0
  8  9  1  0
  4 10  2  0
 10 11  1  0
 11 12  2  0
 12 13  1  0
 13 14  2  0
 14 15  1  0
 10 16  1  0
 16 17  1  0
 16 18  1  0
 16 19  1  0
 19 20  1  0
 19 21  1  0
 19  2  1  0
  9  5  1  0
 15 11  1  0
M  END
$$$$

     RDKit          2D

 18 18  0  0  0  0  0  0  0  0999 V2000
    4.6097   -0.5490    0.0000 C   0  0  0  0  0  0  0  0  0  0  0  0
    3.3107   -1.2990    0.0000 Ge  0  0  0  0  0  4  0  0  0  0  0  0
    2.0116   -2.0490    0.0000 C   0  0  0  0  0  0  0  0  0  0  0  0
    4.0607   -2.5981    0.0000 C   0  0  0  0  0  0  0  0  0  0  0  0
    2.5607    0.0000    0.0000 O   0  0  0  0  0  0  0  0  0  0  0  0
    1.0607    0.0000    0.0000 C   0  0  0  0  0  0  0  0  0  0  0  0
   -0.0000   -1.0607    0.0000 C   0  0  0  0  0  0  0  0  0  0  0  0
   -1.0607    0.0000    0.0000 C   0  0  0  0  0  0  0  0  0  0  0  0
   -2.5607    0.0000    0.0000 O   0  0  0  0  0  0  0  0  0  0  0  0
    0.0000    1.0607    0.0000 C   0  0  0  0  0  0  0  0  0  0  0  0
   -1.0607    2.1213    0.0000 C   0  0  0  0  0  0  0  0  0  0  0  0
   -2.1213    3.1820    0.0000 F   0  0  0  0  0  0  0  0  0  0  0  0
   -0.5154    2.8193    0.0000 F   0  0  0  0  0  0  0  0  0  0  0  0
   -2.1213    1.0607    0.0000 F   0  0  0  0  0  0  0  0  0  0  0  0
    1.0607    2.1213    0.0000 C   0  0  0  0  0  0  0  0  0  0  0  0
    2.1213    3.1820    0.0000 F   0  0  0  0  0  0  0  0  0  0  0  0
    0.5154    2.8193    0.0000 F   0  0  0  0  0  0  0  0  0  0  0  0
    2.1213    1.0607    0.0000 F   0  0  0  0  0  0  0  0  0  0  0  0
  1  2  1  0
  2  3  1  0
  2  4  1  0
  2  5  1  0
  5  6  1  0
  6  7  2  0
  7  8  1  0
  8  9  2  0
  8 10  1  0
 10 11  1  0
 11 12  1  0
 11 13  1  0
 11 14  1  0
 10 15  1  0
 15 16  1  0
 15 17  1  0
 15 18  1  0
 10  6  1  0
M  END
$$$$

     RDKit          2D

 14 13  0  0  0  0  0  0  0  0999 V2000
   -1.5000    0.0000    0.0000 F   0  0  0  0  0  0  0  0  0  0  0  0
    0.0000    0.0000    0.0000 C   0  0  0  0  0  0  0  0  0  0  0  0
    0.0000    1.5000    0.0000 F   0  0  0  0  0  0  0  0  0  0  0  0
   -0.0000   -1.5000    0.0000 F   0  0  0  0  0  0  0  0  0  0  0  0
    1.5000    0.0000    0.0000 C   0  0  0  0  0  0  0  0  0  0  0  0
    1.5000    1.5000    0.0000 F   0  0  0  0  0  0  0  0  0  0  0  0
    1.5000   -1.5000    0.0000 F   0  0  0  0  0  0  0  0  0  0  0  0
    3.0000    0.0000    0.0000 C   0  0  0  0  0  0  0  0  0  0  0  0
    3.0000    1.5000    0.0000 F   0  0  0  0  0  0  0  0  0  0  0  0
    3.0000   -1.5000    0.0000 F   0  0  0  0  0  0  0  0  0  0  0  0
    4.5000    0.0000    0.0000 C   0  0  0  0  0  0  0  0  0  0  0  0
    6.0000    0.0000    0.0000 F   0  0  0  0  0  0  0  0  0  0  0  0
    4.5000   -1.5000    0.0000 Cl  0  0  0  0  0  0  0  0  0  0  0  0
    4.5000    1.5000    0.0000 Cl  0  0  0  0  0  0  0  0  0  0  0  0
  1  2  1  0
  2  3  1  0
  2  4  1  0
  2  5  1  0
  5  6  1  0
  5  7  1  0
  5  8  1  0
  8  9  1  0
  8 10  1  0
  8 11  1  0
 11 12  1  0
 11 13  1  0
 11 14  1  0
M  END
$$$$

     RDKit          2D

 10  9  0  0  0  0  0  0  0  0999 V2000
    0.0000    0.0000    0.0000 C   0  0  0  0  0  0  0  0  0  0  0  0
    1.2990    0.7500    0.0000 C   0  0  0  0  0  0  0  0  0  0  0  0
    2.0490   -0.5490    0.0000 F   0  0  0  0  0  0  0  0  0  0  0  0
    0.5490    2.0490    0.0000 F   0  0  0  0  0  0  0  0  0  0  0  0
    2.5981    1.5000    0.0000 C   0  0  0  0  0  0  0  0  0  0  0  0
    3.3481    0.2010    0.0000 F   0  0  0  0  0  0  0  0  0  0  0  0
    1.8481    2.7990    0.0000 F   0  0  0  0  0  0  0  0  0  0  0  0
    3.8971    2.2500    0.0000 C   0  0  0  0  0  0  0  0  0  0  0  0
    3.8971    3.7500    0.0000 O   0  0  0  0  0  0  0  0  0  0  0  0
    5.1962    1.5000    0.0000 O   0  0  0  0  0  0  0  0  0  0  0  0
  1  2  1  0
  2  3  1  0
  2  4  1  0
  2  5  1  0
  5  6  1  0
  5  7  1  0
  5  8  1  0
  8  9  2  0
  8 10  1  0
M  END
$$$$

     RDKit          2D

 26 25  0  0  0  0  0  0  0  0999 V2000
   -1.5000    0.0000    0.0000 F   0  0  0  0  0  0  0  0  0  0  0  0
    0.0000    0.0000    0.0000 C   0  0  0  0  0  0  0  0  0  0  0  0
    0.0000    1.5000    0.0000 F   0  0  0  0  0  0  0  0  0  0  0  0
   -0.0000   -1.5000    0.0000 F   0  0  0  0  0  0  0  0  0  0  0  0
    1.5000    0.0000    0.0000 C   0  0  0  0  0  0  0  0  0  0  0  0
    1.5000    1.5000    0.0000 F   0  0  0  0  0  0  0  0  0  0  0  0
    1.5000   -1.5000    0.0000 F   0  0  0  0  0  0  0  0  0  0  0  0
    3.0000    0.0000    0.0000 C   0  0  0  0  0  0  0  0  0  0  0  0
    3.0000   -1.5000    0.0000 F   0  0  0  0  0  0  0  0  0  0  0  0
    3.0000    1.5000    0.0000 F   0  0  0  0  0  0  0  0  0  0  0  0
    4.5000    0.0000    0.0000 C   0  0  0  0  0  0  0  0  0  0  0  0
    4.5000    1.5000    0.0000 F   0  0  0  0  0  0  0  0  0  0  0  0
    4.5000   -1.5000    0.0000 F   0  0  0  0  0  0  0  0  0  0  0  0
    6.0000    0.0000    0.0000 C   0  0  0  0  0  0  0  0  0  0  0  0
    6.0000    1.5000    0.0000 F   0  0  0  0  0  0  0  0  0  0  0  0
    6.0000   -1.5000    0.0000 F   0  0  0  0  0  0  0  0  0  0  0  0
    7.5000    0.0000    0.0000 C   0  0  0  0  0  0  0  0  0  0  0  0
    7.5000   -1.5000    0.0000 F   0  0  0  0  0  0  0  0  0  0  0  0
    7.5000    1.5000    0.0000 F   0  0  0  0  0  0  0  0  0  0  0  0
    9.0000    0.0000    0.0000 C   0  0  0  0  0  0  0  0  0  0  0  0
    9.0000    1.5000    0.0000 F   0  0  0  0  0  0  0  0  0  0  0  0
    9.0000   -1.5000    0.0000 F   0  0  0  0  0  0  0  0  0  0  0  0
   10.5000    0.0000    0.0000 C   0  0  0  0  0  0  0  0  0  0  0  0
   12.0000    0.0000    0.0000 F   0  0  0  0  0  0  0  0  0  0  0  0
   10.5000   -1.5000    0.0000 F   0  0  0  0  0  0  0  0  0  0  0  0
   10.5000    1.5000    0.0000 F   0  0  0  0  0  0  0  0  0  0  0  0
  1  2  1  0
  2  3  1  0
  2  4  1  0
  2  5  1  0
  5  6  1  0
  5  7  1  0
  5  8  1  0
  8  9  1  0
  8 10  1  0
  8 11  1  0
 11 12  1  0
 11 13  1  0
 11 14  1  0
 14 15  1  0
 14 16  1  0
 14 17  1  0
 17 18  1  0
 17 19  1  0
 17 20  1  0
 20 21  1  0
 20 22  1  0
 20 23  1  0
 23 24  1  0
 23 25  1  0
 23 26  1  0
M  END
$$$$

     RDKit          2D

 38 37  0  0  0  0  0  0  0  0999 V2000
   -1.5000    0.0000    0.0000 F   0  0  0  0  0  0  0  0  0  0  0  0
    0.0000    0.0000    0.0000 C   0  0  0  0  0  0  0  0  0  0  0  0
    0.0000    1.5000    0.0000 F   0  0  0  0  0  0  0  0  0  0  0  0
   -0.0000   -1.5000    0.0000 F   0  0  0  0  0  0  0  0  0  0  0  0
    1.5000    0.0000    0.0000 C   0  0  0  0  0  0  0  0  0  0  0  0
    1.5000    1.5000    0.0000 F   0  0  0  0  0  0  0  0  0  0  0  0
    1.5000   -1.5000    0.0000 F   0  0  0  0  0  0  0  0  0  0  0  0
    3.0000    0.0000    0.0000 C   0  0  0  0  0  0  0  0  0  0  0  0
    3.0000   -1.5000    0.0000 F   0  0  0  0  0  0  0  0  0  0  0  0
    3.0000    1.5000    0.0000 F   0  0  0  0  0  0  0  0  0  0  0  0
    4.5000    0.0000    0.0000 C   0  0  0  0  0  0  0  0  0  0  0  0
    4.5000    1.5000    0.0000 F   0  0  0  0  0  0  0  0  0  0  0  0
    4.5000   -1.5000    0.0000 F   0  0  0  0  0  0  0  0  0  0  0  0
    6.0000    0.0000    0.0000 C   0  0  0  0  0  0  0  0  0  0  0  0
    6.0000   -1.5000    0.0000 F   0  0  0  0  0  0  0  0  0  0  0  0
    6.0000    1.5000    0.0000 F   0  0  0  0  0  0  0  0  0  0  0  0
    7.5000    0.0000    0.0000 C   0  0  0  0  0  0  0  0  0  0  0  0
    7.5000    1.5000    0.0000 F   0  0  0  0  0  0  0  0  0  0  0  0
    7.5000   -1.5000    0.0000 F   0  0  0  0  0  0  0  0  0  0  0  0
    9.0000    0.0000    0.0000 C   0  0  0  0  0  0  0  0  0  0  0  0
    9.0000    1.5000    0.0000 F   0  0  0  0  0  0  0  0  0  0  0  0
    9.0000   -1.5000    0.0000 F   0  0  0  0  0  0  0  0  0  0  0  0
   10.5000    0.0000    0.0000 C   0  0  0  0  0  0  0  0  0  0  0  0
   10.5000   -1.5000    0.0000 F   0  0  0  0  0  0  0  0  0  0  0  0
   10.5000    1.5000    0.0000 F   0  0  0  0  0  0  0  0  0  0  0  0
   12.0000    0.0000    0.0000 C   0  0  0  0  0  0  0  0  0  0  0  0
   12.0000    1.5000    0.0000 F   0  0  0  0  0  0  0  0  0  0  0  0
   12.0000   -1.5000    0.0000 F   0  0  0  0  0  0  0  0  0  0  0  0
   13.5000    0.0000    0.0000 C   0  0  0  0  0  0  0  0  0  0  0  0
   13.5000   -1.5000    0.0000 F   0  0  0  0  0  0  0  0  0  0  0  0
   13.5000    1.5000    0.0000 F   0  0  0  0  0  0  0  0  0  0  0  0
   15.0000    0.0000    0.0000 C   0  0  0  0  0  0  0  0  0  0  0  0
   15.0000    1.5000    0.0000 F   0  0  0  0  0  0  0  0  0  0  0  0
   15.0000   -1.5000    0.0000 F   0  0  0  0  0  0  0  0  0  0  0  0
   16.5000    0.0000    0.0000 C   0  0  0  0  0  0  0  0  0  0  0  0
   18.0000    0.0000    0.0000 F   0  0  0  0  0  0  0  0  0  0  0  0
   16.5000   -1.5000    0.0000 F   0  0  0  0  0  0  0  0  0  0  0  0
   16.5000    1.5000    0.0000 I   0  0  0  0  0  0  0  0  0  0  0  0
  1  2  1  0
  2  3  1  0
  2  4  1  0
  2  5  1  0
  5  6  1  0
  5  7  1  0
  5  8  1  0
  8  9  1  0
  8 10  1  0
  8 11  1  0
 11 12  1  0
 11 13  1  0
 11 14  1  0
 14 15  1  0
 14 16  1  0
 14 17  1  0
 17 18  1  0
 17 19  1  0
 17 20  1  0
 20 21  1  0
 20 22  1  0
 20 23  1  0
 23 24  1  0
 23 25  1  0
 23 26  1  0
 26 27  1  0
 26 28  1  0
 26 29  1  0
 29 30  1  0
 29 31  1  0
 29 32  1  0
 32 33  1  0
 32 34  1  0
 32 35  1  0
 35 36  1  0
 35 37  1  0
 35 38  1  0
M  END
$$$$

     RDKit          2D

 32 31  0  0  0  0  0  0  0  0999 V2000
   -1.2990    0.7500    0.0000 O   0  0  0  0  0  0  0  0  0  0  0  0
    0.0000    0.0000    0.0000 C   0  0  0  0  0  0  0  0  0  0  0  0
    1.2990    0.7500    0.0000 C   0  0  0  0  0  0  0  0  0  0  0  0
    2.0490   -0.5490    0.0000 F   0  0  0  0  0  0  0  0  0  0  0  0
    0.5490    2.0490    0.0000 F   0  0  0  0  0  0  0  0  0  0  0  0
    2.5981    1.5000    0.0000 C   0  0  0  0  0  0  0  0  0  0  0  0
    1.8481    2.7990    0.0000 F   0  0  0  0  0  0  0  0  0  0  0  0
    3.3481    0.2010    0.0000 F   0  0  0  0  0  0  0  0  0  0  0  0
    3.8971    2.2500    0.0000 C   0  0  0  0  0  0  0  0  0  0  0  0
    4.6471    0.9510    0.0000 F   0  0  0  0  0  0  0  0  0  0  0  0
    3.1471    3.5490    0.0000 F   0  0  0  0  0  0  0  0  0  0  0  0
    5.1962    3.0000    0.0000 C   0  0  0  0  0  0  0  0  0  0  0  0
    4.4462    4.2990    0.0000 F   0  0  0  0  0  0  0  0  0  0  0  0
    5.9462    1.7010    0.0000 F   0  0  0  0  0  0  0  0  0  0  0  0
    6.4952    3.7500    0.0000 C   0  0  0  0  0  0  0  0  0  0  0  0
    7.2452    2.4510    0.0000 F   0  0  0  0  0  0  0  0  0  0  0  0
    5.7452    5.0490    0.0000 F   0  0  0  0  0  0  0  0  0  0  0  0
    7.7942    4.5000    0.0000 C   0  0  0  0  0  0  0  0  0  0  0  0
    8.5442    3.2010    0.0000 F   0  0  0  0  0  0  0  0  0  0  0  0
    7.0442    5.7990    0.0000 F   0  0  0  0  0  0  0  0  0  0  0  0
    9.0933    5.2500    0.0000 C   0  0  0  0  0  0  0  0  0  0  0  0
    8.3433    6.5490    0.0000 F   0  0  0  0  0  0  0  0  0  0  0  0
    9.8433    3.9510    0.0000 F   0  0  0  0  0  0  0  0  0  0  0  0
   10.3923    6.0000    0.0000 C   0  0  0  0  0  0  0  0  0  0  0  0
   11.1423    4.7010    0.0000 F   0  0  0  0  0  0  0  0  0  0  0  0
    9.6423    7.2990    0.0000 F   0  0  0  0  0  0  0  0  0  0  0  0
   11.6913    6.7500    0.0000 C   0  0  0  0  0  0  0  0  0  0  0  0
   10.9413    8.0490    0.0000 F   0  0  0  0  0  0  0  0  0  0  0  0
   12.4413    5.4510    0.0000 F   0  0  0  0  0  0  0  0  0  0  0  0
   12.9904    7.5000    0.0000 C   0  0  0  0  0  0  0  0  0  0  0  0
   12.9904    9.0000    0.0000 F   0  0  0  0  0  0  0  0  0  0  0  0
   14.2894    6.7500    0.0000 F   0  0  0  0  0  0  0  0  0  0  0  0
  1  2  1  0
  2  3  1  0
  3  4  1  0
  3  5  1  0
  3  6  1  0
  6  7  1  0
  6  8  1  0
  6  9  1  0
  9 10  1  0
  9 11  1  0
  9 12  1  0
 12 13  1  0
 12 14  1  0
 12 15  1  0
 15 16  1  0
 15 17  1  0
 15 18  1  0
 18 19  1  0
 18 20  1  0
 18 21  1  0
 21 22  1  0
 21 23  1  0
 21 24  1  0
 24 25  1  0
 24 26  1  0
 24 27  1  0
 27 28  1  0
 27 29  1  0
 27 30  1  0
 30 31  1  0
 30 32  1  0
M  END
$$$$

     RDKit          2D

 25 24  0  0  0  0  0  0  0  0999 V2000
   -1.2990    0.7500    0.0000 O   0  0  0  0  0  0  0  0  0  0  0  0
    0.0000    0.0000    0.0000 C   0  0  0  0  0  0  0  0  0  0  0  0
   -0.0000   -1.5000    0.0000 F   0  0  0  0  0  0  0  0  0  0  0  0
    1.2990    0.7500    0.0000 C   0  0  0  0  0  0  0  0  0  0  0  0
    2.0490   -0.5490    0.0000 F   0  0  0  0  0  0  0  0  0  0  0  0
    0.5490    2.0490    0.0000 F   0  0  0  0  0  0  0  0  0  0  0  0
    2.5981    1.5000    0.0000 C   0  0  0  0  0  0  0  0  0  0  0  0
    1.8481    2.7990    0.0000 F   0  0  0  0  0  0  0  0  0  0  0  0
    3.3481    0.2010    0.0000 F   0  0  0  0  0  0  0  0  0  0  0  0
    3.8971    2.2500    0.0000 C   0  0  0  0  0  0  0  0  0  0  0  0
    4.6471    0.9510    0.0000 F   0  0  0  0  0  0  0  0  0  0  0  0
    3.1471    3.5490    0.0000 F   0  0  0  0  0  0  0  0  0  0  0  0
    5.1962    3.0000    0.0000 C   0  0  0  0  0  0  0  0  0  0  0  0
    4.4462    4.2990    0.0000 F   0  0  0  0  0  0  0  0  0  0  0  0
    5.9462    1.7010    0.0000 F   0  0  0  0  0  0  0  0  0  0  0  0
    6.4952    3.7500    0.0000 C   0  0  0  0  0  0  0  0  0  0  0  0
    7.2452    2.4510    0.0000 F   0  0  0  0  0  0  0  0  0  0  0  0
    5.7452    5.0490    0.0000 F   0  0  0  0  0  0  0  0  0  0  0  0
    7.7942    4.5000    0.0000 C   0  0  0  0  0  0  0  0  0  0  0  0
    7.0442    5.7990    0.0000 F   0  0  0  0  0  0  0  0  0  0  0  0
    8.5442    3.2010    0.0000 F   0  0  0  0  0  0  0  0  0  0  0  0
    9.0933    5.2500    0.0000 C   0  0  0  0  0  0  0  0  0  0  0  0
   10.3923    6.0000    0.0000 F   0  0  0  0  0  0  0  0  0  0  0  0
    9.8433    3.9510    0.0000 F   0  0  0  0  0  0  0  0  0  0  0  0
    8.3433    6.5490    0.0000 F   0  0  0  0  0  0  0  0  0  0  0  0
  1  2  2  0
  2  3  1  0
  2  4  1  0
  4  5  1  0
  4  6  1  0
  4  7  1  0
  7  8  1  0
  7  9  1  0
  7 10  1  0
 10 11  1  0
 10 12  1  0
 10 13  1  0
 13 14  1  0
 13 15  1  0
 13 16  1  0
 16 17  1  0
 16 18  1  0
 16 19  1  0
 19 20  1  0
 19 21  1  0
 19 22  1  0
 22 23  1  0
 22 24  1  0
 22 25  1  0
M  END
$$$$

     RDKit          2D

 30 31  0  0  0  0  0  0  0  0999 V2000
    2.6074    1.7603    0.0000 O   0  0  0  0  0  0  0  0  0  0  0  0
    2.6491    0.9642    0.0000 C   0  0  0  0  0  0  0  0  0  0  0  0
    4.0586    0.4512    0.0000 O   0  0  0  0  0  0  0  0  0  0  0  0
    1.5000    0.0000    0.0000 C   0  0  0  0  0  0  0  0  0  0  0  0
    2.6491   -0.9642    0.0000 F   0  0  0  0  0  0  0  0  0  0  0  0
    0.7500   -1.2990    0.0000 C   0  0  0  0  0  0  0  0  0  0  0  0
    2.1595   -1.8121    0.0000 F   0  0  0  0  0  0  0  0  0  0  0  0
    0.4895   -2.7762    0.0000 F   0  0  0  0  0  0  0  0  0  0  0  0
   -0.7500   -1.2990    0.0000 C   0  0  0  0  0  0  0  0  0  0  0  0
   -0.4895   -2.7762    0.0000 F   0  0  0  0  0  0  0  0  0  0  0  0
   -2.1595   -1.8121    0.0000 F   0  0  0  0  0  0  0  0  0  0  0  0
   -1.5000    0.0000    0.0000 C   0  0  0  0  0  0  0  0  0  0  0  0
   -2.6491   -0.9642    0.0000 F   0  0  0  0  0  0  0  0  0  0  0  0
   -2.7134    0.5917    0.0000 F   0  0  0  0  0  0  0  0  0  0  0  0
   -0.7500    1.2990    0.0000 C   0  0  0  0  0  0  0  0  0  0  0  0
   -2.1000    1.2990    0.0000 F   0  0  0  0  0  0  0  0  0  0  0  0
   -1.5000    2.5981    0.0000 C   0  0  0  0  0  0  0  0  0  0  0  0
   -2.6491    3.5623    0.0000 F   0  0  0  0  0  0  0  0  0  0  0  0
   -2.8482    1.9406    0.0000 F   0  0  0  0  0  0  0  0  0  0  0  0
   -0.7500    3.8971    0.0000 C   0  0  0  0  0  0  0  0  0  0  0  0
   -0.4895    5.3743    0.0000 F   0  0  0  0  0  0  0  0  0  0  0  0
   -2.1595    4.4101    0.0000 F   0  0  0  0  0  0  0  0  0  0  0  0
    0.7500    3.8971    0.0000 C   0  0  0  0  0  0  0  0  0  0  0  0
    2.1595    4.4101    0.0000 F   0  0  0  0  0  0  0  0  0  0  0  0
    0.4895    5.3743    0.0000 F   0  0  0  0  0  0  0  0  0  0  0  0
    1.5000    2.5981    0.0000 C   0  0  0  0  0  0  0  0  0  0  0  0
    2.2798    2.4324    0.0000 F   0  0  0  0  0  0  0  0  0  0  0  0
    2.6491    3.5623    0.0000 F   0  0  0  0  0  0  0  0  0  0  0  0
    0.7500    1.2990    0.0000 C   0  0  0  0  0  0  0  0  0  0  0  0
    2.2388    1.4819    0.0000 F   0  0  0  0  0  0  0  0  0  0  0  0
  1  2  2  0
  2  3  1  0
  2  4  1  0
  4  5  1  0
  4  6  1  0
  6  7  1  0
  6  8  1  0
  6  9  1  0
  9 10  1  0
  9 11  1  0
  9 12  1  0
 12 13  1  0
 12 14  1  0
 12 15  1  0
 15 16  1  0
 15 17  1  0
 17 18  1  0
 17 19  1  0
 17 20  1  0
 20 21  1  0
 20 22  1  0
 20 23  1  0
 23 24  1  0
 23 25  1  0
 23 26  1  0
 26 27  1  0
 26 28  1  0
 26 29  1  0
 29 30  1  0
 29  4  1  0
 29 15  1  0
M  END
$$$$

     RDKit          2D

 10  9  0  0  0  0  0  0  0  0999 V2000
   -1.2990    0.7500    0.0000 N   0  0  0  0  0  0  0  0  0  0  0  0
    0.0000    0.0000    0.0000 C   0  0  0  0  0  0  0  0  0  0  0  0
   -0.0000   -1.5000    0.0000 O   0  0  0  0  0  0  0  0  0  0  0  0
    1.2990    0.7500    0.0000 C   0  0  0  0  0  0  0  0  0  0  0  0
    2.0490   -0.5490    0.0000 F   0  0  0  0  0  0  0  0  0  0  0  0
    0.5490    2.0490    0.0000 F   0  0  0  0  0  0  0  0  0  0  0  0
    2.5981    1.5000    0.0000 C   0  0  0  0  0  0  0  0  0  0  0  0
    3.8971    2.2500    0.0000 F   0  0  0  0  0  0  0  0  0  0  0  0
    1.8481    2.7990    0.0000 F   0  0  0  0  0  0  0  0  0  0  0  0
    3.3481    0.2010    0.0000 F   0  0  0  0  0  0  0  0  0  0  0  0
  1  2  1  0
  2  3  2  0
  2  4  1  0
  4  5  1  0
  4  6  1  0
  4  7  1  0
  7  8  1  0
  7  9  1  0
  7 10  1  0
M  END
$$$$

     RDKit          2D

 11 10  0  0  0  0  0  0  0  0999 V2000
   -0.0000   -3.0000    0.0000 O   0  0  0  0  0  0  0  0  0  0  0  0
   -0.0000   -1.5000    0.0000 S   0  0  0  0  0  0  0  0  0  0  0  0
   -1.5000   -1.5000    0.0000 O   0  0  0  0  0  0  0  0  0  0  0  0
    0.7912   -1.5972    0.0000 F   0  0  0  0  0  0  0  0  0  0  0  0
    0.0000    0.0000    0.0000 C   0  0  0  0  0  0  0  0  0  0  0  0
   -1.5000    0.0000    0.0000 F   0  0  0  0  0  0  0  0  0  0  0  0
    0.0000    1.5000    0.0000 F   0  0  0  0  0  0  0  0  0  0  0  0
    1.5000    0.0000    0.0000 C   0  0  0  0  0  0  0  0  0  0  0  0
    3.0000    0.0000    0.0000 F   0  0  0  0  0  0  0  0  0  0  0  0
    1.6080   -0.8791    0.0000 F   0  0  0  0  0  0  0  0  0  0  0  0
    1.5000    1.5000    0.0000 F   0  0  0  0  0  0  0  0  0  0  0  0
  1  2  2  0
  2  3  2  0
  2  4  1  0
  2  5  1  0
  5  6  1  0
  5  7  1  0
  5  8  1  0
  8  9  1  0
  8 10  1  0
  8 11  1  0
M  END
$$$$

     RDKit          2D

 21 21  0  0  0  0  0  0  0  0999 V2000
    3.7981   -1.9284    0.0000 O   0  0  0  0  0  0  0  0  0  0  0  0
    2.6491   -0.9642    0.0000 S   0  0  0  0  0  0  0  0  0  0  0  0
    3.6132    0.1849    0.0000 O   0  0  0  0  0  0  0  0  0  0  0  0
    2.2149   -1.6327    0.0000 F   0  0  0  0  0  0  0  0  0  0  0  0
    1.5000    0.0000    0.0000 C   0  0  0  0  0  0  0  0  0  0  0  0
    2.6491    0.9642    0.0000 F   0  0  0  0  0  0  0  0  0  0  0  0
    0.7500   -1.2990    0.0000 C   0  0  0  0  0  0  0  0  0  0  0  0
    1.5392   -1.7012    0.0000 F   0  0  0  0  0  0  0  0  0  0  0  0
    0.4895   -2.7762    0.0000 F   0  0  0  0  0  0  0  0  0  0  0  0
   -0.7500   -1.2990    0.0000 C   0  0  0  0  0  0  0  0  0  0  0  0
   -0.4895   -2.7762    0.0000 F   0  0  0  0  0  0  0  0  0  0  0  0
   -2.1595   -1.8121    0.0000 F   0  0  0  0  0  0  0  0  0  0  0  0
   -1.5000    0.0000    0.0000 C   0  0  0  0  0  0  0  0  0  0  0  0
   -2.6491   -0.9642    0.0000 F   0  0  0  0  0  0  0  0  0  0  0  0
   -2.6491    0.9642    0.0000 F   0  0  0  0  0  0  0  0  0  0  0  0
   -0.7500    1.2990    0.0000 C   0  0  0  0  0  0  0  0  0  0  0  0
   -2.1595    1.8121    0.0000 F   0  0  0  0  0  0  0  0  0  0  0  0
   -0.4895    2.7762    0.0000 F   0  0  0  0  0  0  0  0  0  0  0  0
    0.7500    1.2990    0.0000 C   0  0  0  0  0  0  0  0  0  0  0  0
    0.4895    2.7762    0.0000 F   0  0  0  0  0  0  0  0  0  0  0  0
    2.1595    1.8121    0.0000 F   0  0  0  0  0  0  0  0  0  0  0  0
  1  2  2  0
  2  3  2  0
  2  4  1  0
  2  5  1  0
  5  6  1  0
  5  7  1  0
  7  8  1  0
  7  9  1  0
  7 10  1  0
 10 11  1  0
 10 12  1  0
 10 13  1  0
 13 14  1  0
 13 15  1  0
 13 16  1  0
 16 17  1  0
 16 18  1  0
 16 19  1  0
 19 20  1  0
 19 21  1  0
 19  5  1  0
M  END
$$$$

     RDKit          2D

 19 18  0  0  0  0  0  0  0  0999 V2000
   -1.2990    0.7500    0.0000 O   0  0  0  0  0  0  0  0  0  0  0  0
    0.0000    0.0000    0.0000 C   0  0  0  0  0  0  0  0  0  0  0  0
   -0.0000   -1.5000    0.0000 F   0  0  0  0  0  0  0  0  0  0  0  0
    1.2990    0.7500    0.0000 C   0  0  0  0  0  0  0  0  0  0  0  0
    2.0490   -0.5490    0.0000 F   0  0  0  0  0  0  0  0  0  0  0  0
    0.5490    2.0490    0.0000 F   0  0  0  0  0  0  0  0  0  0  0  0
    2.5981    1.5000    0.0000 C   0  0  0  0  0  0  0  0  0  0  0  0
    1.8481    2.7990    0.0000 F   0  0  0  0  0  0  0  0  0  0  0  0
    3.3481    0.2010    0.0000 F   0  0  0  0  0  0  0  0  0  0  0  0
    3.8971    2.2500    0.0000 C   0  0  0  0  0  0  0  0  0  0  0  0
    4.6471    0.9510    0.0000 F   0  0  0  0  0  0  0  0  0  0  0  0
    3.1471    3.5490    0.0000 F   0  0  0  0  0  0  0  0  0  0  0  0
    5.1962    3.0000    0.0000 C   0  0  0  0  0  0  0  0  0  0  0  0
    4.4462    4.2990    0.0000 F   0  0  0  0  0  0  0  0  0  0  0  0
    5.9462    1.7010    0.0000 F   0  0  0  0  0  0  0  0  0  0  0  0
    6.4952    3.7500    0.0000 C   0  0  0  0  0  0  0  0  0  0  0  0
    7.7942    4.5000    0.0000 F   0  0  0  0  0  0  0  0  0  0  0  0
    7.2452    2.4510    0.0000 F   0  0  0  0  0  0  0  0  0  0  0  0
    5.7452    5.0490    0.0000 F   0  0  0  0  0  0  0  0  0  0  0  0
  1  2  2  0
  2  3  1  0
  2  4  1  0
  4  5  1  0
  4  6  1  0
  4  7  1  0
  7  8  1  0
  7  9  1  0
  7 10  1  0
 10 11  1  0
 10 12  1  0
 10 13  1  0
 13 14  1  0
 13 15  1  0
 13 16  1  0
 16 17  1  0
 16 18  1  0
 16 19  1  0
M  END
$$$$

     RDKit          2D

 16 15  0  0  0  0  0  0  0  0999 V2000
   -1.2990    0.7500    0.0000 F   0  0  0  0  0  0  0  0  0  0  0  0
    0.0000    0.0000    0.0000 C   0  0  0  0  0  0  0  0  0  0  0  0
   -0.0000   -1.5000    0.0000 F   0  0  0  0  0  0  0  0  0  0  0  0
    1.2990    0.7500    0.0000 C   0  0  0  0  0  0  0  0  0  0  0  0
    1.2990    2.2500    0.0000 F   0  0  0  0  0  0  0  0  0  0  0  0
    2.5981   -0.0000    0.0000 O   0  0  0  0  0  0  0  0  0  0  0  0
    3.8971    0.7500    0.0000 C   0  0  0  0  0  0  0  0  0  0  0  0
    3.1471    2.0490    0.0000 F   0  0  0  0  0  0  0  0  0  0  0  0
    4.6471   -0.5490    0.0000 F   0  0  0  0  0  0  0  0  0  0  0  0
    5.1962    1.5000    0.0000 C   0  0  0  0  0  0  0  0  0  0  0  0
    4.4462    2.7990    0.0000 F   0  0  0  0  0  0  0  0  0  0  0  0
    5.9462    0.2010    0.0000 Br  0  0  0  0  0  0  0  0  0  0  0  0
    6.4952    2.2500    0.0000 C   0  0  0  0  0  0  0  0  0  0  0  0
    7.7942    3.0000    0.0000 F   0  0  0  0  0  0  0  0  0  0  0  0
    7.2452    0.9510    0.0000 F   0  0  0  0  0  0  0  0  0  0  0  0
    5.7452    3.5490    0.0000 F   0  0  0  0  0  0  0  0  0  0  0  0
  1  2  1  0
  2  3  1  0
  2  4  2  0
  4  5  1  0
  4  6  1  0
  6  7  1  0
  7  8  1  0
  7  9  1  0
  7 10  1  0
 10 11  1  0
 10 12  1  0
 10 13  1  0
 13 14  1  0
 13 15  1  0
 13 16  1  0
M  END
$$$$

     RDKit          2D

 16 16  0  0  0  0  0  0  0  0999 V2000
    3.0000    0.0000    0.0000 O   0  0  0  0  0  0  0  0  0  0  0  0
    1.5000    0.0000    0.0000 C   0  0  0  0  0  0  0  0  0  0  0  0
    0.7500   -1.2990    0.0000 C   0  0  0  0  0  0  0  0  0  0  0  0
   -0.7500   -1.2990    0.0000 C   0  0  0  0  0  0  0  0  0  0  0  0
   -1.5000    0.0000    0.0000 C   0  0  0  0  0  0  0  0  0  0  0  0
   -3.0000    0.0000    0.0000 C   0  0  0  0  0  0  0  0  0  0  0  0
   -3.7500    1.2990    0.0000 C   0  0  0  0  0  0  0  0  0  0  0  0
   -4.5000    2.5981    0.0000 F   0  0  0  0  0  0  0  0  0  0  0  0
   -5.0490    0.5490    0.0000 F   0  0  0  0  0  0  0  0  0  0  0  0
   -2.4510    2.0490    0.0000 F   0  0  0  0  0  0  0  0  0  0  0  0
   -3.7500   -1.2990    0.0000 C   0  0  0  0  0  0  0  0  0  0  0  0
   -4.5000   -2.5981    0.0000 F   0  0  0  0  0  0  0  0  0  0  0  0
   -5.0490   -0.5490    0.0000 F   0  0  0  0  0  0  0  0  0  0  0  0
   -2.4510   -2.0490    0.0000 F   0  0  0  0  0  0  0  0  0  0  0  0
   -0.7500    1.2990    0.0000 C   0  0  0  0  0  0  0  0  0  0  0  0
    0.7500    1.2990    0.0000 C   0  0  0  0  0  0  0  0  0  0  0  0
  1  2  1  0
  2  3  2  0
  3  4  1  0
  4  5  2  0
  5  6  1  0
  6  7  1  0
  7  8  1  0
  7  9  1  0
  7 10  1  0
  6 11  1  0
 11 12  1  0
 11 13  1  0
 11 14  1  0
  5 15  1  0
 15 16  2  0
 16  2  1  0
M  END
$$$$

     RDKit          2D

 14 13  0  0  0  0  0  0  0  0999 V2000
   -1.2990    0.7500    0.0000 O   0  0  0  0  0  0  0  0  0  0  0  0
    0.0000    0.0000    0.0000 C   0  0  0  0  0  0  0  0  0  0  0  0
    1.2990    0.7500    0.0000 C   0  0  0  0  0  0  0  0  0  0  0  0
    2.0490   -0.5490    0.0000 F   0  0  0  0  0  0  0  0  0  0  0  0
    0.5490    2.0490    0.0000 F   0  0  0  0  0  0  0  0  0  0  0  0
    2.5981    1.5000    0.0000 C   0  0  0  0  0  0  0  0  0  0  0  0
    1.8481    2.7990    0.0000 F   0  0  0  0  0  0  0  0  0  0  0  0
    3.3481    0.2010    0.0000 F   0  0  0  0  0  0  0  0  0  0  0  0
    3.8971    2.2500    0.0000 C   0  0  0  0  0  0  0  0  0  0  0  0
    3.1471    3.5490    0.0000 F   0  0  0  0  0  0  0  0  0  0  0  0
    4.6471    0.9510    0.0000 F   0  0  0  0  0  0  0  0  0  0  0  0
    5.1962    3.0000    0.0000 C   0  0  0  0  0  0  0  0  0  0  0  0
    5.1962    4.5000    0.0000 F   0  0  0  0  0  0  0  0  0  0  0  0
    6.4952    2.2500    0.0000 F   0  0  0  0  0  0  0  0  0  0  0  0
  1  2  1  0
  2  3  1  0
  3  4  1  0
  3  5  1  0
  3  6  1  0
  6  7  1  0
  6  8  1  0
  6  9  1  0
  9 10  1  0
  9 11  1  0
  9 12  1  0
 12 13  1  0
 12 14  1  0
M  END
$$$$

     RDKit          2D

 11 10  0  0  0  0  0  0  0  0999 V2000
   -1.2990    0.7500    0.0000 O   0  0  0  0  0  0  0  0  0  0  0  0
    0.0000    0.0000    0.0000 C   0  0  0  0  0  0  0  0  0  0  0  0
    1.2990    0.7500    0.0000 C   0  0  0  0  0  0  0  0  0  0  0  0
    2.5981   -0.0000    0.0000 O   0  0  0  0  0  0  0  0  0  0  0  0
    3.8971    0.7500    0.0000 C   0  0  0  0  0  0  0  0  0  0  0  0
    5.1962   -0.0000    0.0000 C   0  0  0  0  0  0  0  0  0  0  0  0
    5.9462    1.2990    0.0000 F   0  0  0  0  0  0  0  0  0  0  0  0
    4.4462   -1.2990    0.0000 F   0  0  0  0  0  0  0  0  0  0  0  0
    6.4952   -0.7500    0.0000 C   0  0  0  0  0  0  0  0  0  0  0  0
    6.4952   -2.2500    0.0000 F   0  0  0  0  0  0  0  0  0  0  0  0
    7.7942   -0.0000    0.0000 F   0  0  0  0  0  0  0  0  0  0  0  0
  1  2  1  0
  2  3  1  0
  3  4  1  0
  4  5  1  0
  5  6  1  0
  6  7  1  0
  6  8  1  0
  6  9  1  0
  9 10  1  0
  9 11  1  0
M  END
$$$$

     RDKit          2D

 10  9  0  0  0  0  0  0  0  0999 V2000
    0.0000    0.0000    0.0000 C   0  0  0  0  0  0  0  0  0  0  0  0
    1.2990    0.7500    0.0000 C   0  0  0  0  0  0  0  0  0  0  0  0
    2.5981   -0.0000    0.0000 C   0  0  0  0  0  0  0  0  0  0  0  0
    3.8971    0.7500    0.0000 C   0  0  0  0  0  0  0  0  0  0  0  0
    4.6471   -0.5490    0.0000 F   0  0  0  0  0  0  0  0  0  0  0  0
    3.1471    2.0490    0.0000 F   0  0  0  0  0  0  0  0  0  0  0  0
    5.1962    1.5000    0.0000 C   0  0  0  0  0  0  0  0  0  0  0  0
    6.4952    2.2500    0.0000 F   0  0  0  0  0  0  0  0  0  0  0  0
    4.4462    2.7990    0.0000 F   0  0  0  0  0  0  0  0  0  0  0  0
    5.9462    0.2010    0.0000 F   0  0  0  0  0  0  0  0  0  0  0  0
  1  2  2  0
  2  3  1  0
  3  4  1  0
  4  5  1  0
  4  6  1  0
  4  7  1  0
  7  8  1  0
  7  9  1  0
  7 10  1  0
M  END
$$$$

     RDKit          2D

 26 25  0  0  0  0  0  0  0  0999 V2000
   -1.5000    0.0000    0.0000 F   0  0  0  0  0  0  0  0  0  0  0  0
    0.0000    0.0000    0.0000 C   0  0  0  0  0  0  0  0  0  0  0  0
    0.0000    1.5000    0.0000 F   0  0  0  0  0  0  0  0  0  0  0  0
   -0.0000   -1.5000    0.0000 F   0  0  0  0  0  0  0  0  0  0  0  0
    1.5000    0.0000    0.0000 C   0  0  0  0  0  0  0  0  0  0  0  0
    1.5000    1.5000    0.0000 F   0  0  0  0  0  0  0  0  0  0  0  0
    1.5000   -1.5000    0.0000 F   0  0  0  0  0  0  0  0  0  0  0  0
    3.0000    0.0000    0.0000 C   0  0  0  0  0  0  0  0  0  0  0  0
    3.0000   -1.5000    0.0000 F   0  0  0  0  0  0  0  0  0  0  0  0
    3.0000    1.5000    0.0000 F   0  0  0  0  0  0  0  0  0  0  0  0
    4.5000    0.0000    0.0000 C   0  0  0  0  0  0  0  0  0  0  0  0
    4.5000    1.5000    0.0000 F   0  0  0  0  0  0  0  0  0  0  0  0
    4.5000   -1.5000    0.0000 F   0  0  0  0  0  0  0  0  0  0  0  0
    6.0000    0.0000    0.0000 C   0  0  0  0  0  0  0  0  0  0  0  0
    6.0000    1.5000    0.0000 F   0  0  0  0  0  0  0  0  0  0  0  0
    6.0000   -1.5000    0.0000 F   0  0  0  0  0  0  0  0  0  0  0  0
    7.5000    0.0000    0.0000 C   0  0  0  0  0  0  0  0  0  0  0  0
    7.5000   -1.5000    0.0000 F   0  0  0  0  0  0  0  0  0  0  0  0
    7.5000    1.5000    0.0000 F   0  0  0  0  0  0  0  0  0  0  0  0
    9.0000    0.0000    0.0000 C   0  0  0  0  0  0  0  0  0  0  0  0
    9.0000    1.5000    0.0000 F   0  0  0  0  0  0  0  0  0  0  0  0
    9.0000   -1.5000    0.0000 F   0  0  0  0  0  0  0  0  0  0  0  0
   10.5000    0.0000    0.0000 C   0  0  0  0  0  0  0  0  0  0  0  0
   12.0000    0.0000    0.0000 F   0  0  0  0  0  0  0  0  0  0  0  0
   10.5000   -1.5000    0.0000 F   0  0  0  0  0  0  0  0  0  0  0  0
   10.5000    1.5000    0.0000 I   0  0  0  0  0  0  0  0  0  0  0  0
  1  2  1  0
  2  3  1  0
  2  4  1  0
  2  5  1  0
  5  6  1  0
  5  7  1  0
  5  8  1  0
  8  9  1  0
  8 10  1  0
  8 11  1  0
 11 12  1  0
 11 13  1  0
 11 14  1  0
 14 15  1  0
 14 16  1  0
 14 17  1  0
 17 18  1  0
 17 19  1  0
 17 20  1  0
 20 21  1  0
 20 22  1  0
 20 23  1  0
 23 24  1  0
 23 25  1  0
 23 26  1  0
M  END
$$$$

     RDKit          2D

 13 12  0  0  0  0  0  0  0  0999 V2000
   -0.0000   -1.5000    0.0000 F   0  0  0  0  0  0  0  0  0  0  0  0
    0.0000    0.0000    0.0000 C   0  0  0  0  0  0  0  0  0  0  0  0
   -1.2990    0.7500    0.0000 O   0  0  0  0  0  0  0  0  0  0  0  0
   -2.5981    0.0000    0.0000 C   0  0  0  0  0  0  0  0  0  0  0  0
   -1.8481   -1.2990    0.0000 F   0  0  0  0  0  0  0  0  0  0  0  0
   -3.3481    1.2990    0.0000 F   0  0  0  0  0  0  0  0  0  0  0  0
   -3.8971   -0.7500    0.0000 C   0  0  0  0  0  0  0  0  0  0  0  0
   -3.8971   -2.2500    0.0000 F   0  0  0  0  0  0  0  0  0  0  0  0
   -5.1962    0.0000    0.0000 Cl  0  0  0  0  0  0  0  0  0  0  0  0
    1.2990    0.7500    0.0000 C   0  0  0  0  0  0  0  0  0  0  0  0
    2.5981    1.5000    0.0000 F   0  0  0  0  0  0  0  0  0  0  0  0
    2.0490   -0.5490    0.0000 F   0  0  0  0  0  0  0  0  0  0  0  0
    0.5490    2.0490    0.0000 F   0  0  0  0  0  0  0  0  0  0  0  0
  1  2  1  0
  2  3  1  0
  3  4  1  0
  4  5  1  0
  4  6  1  0
  4  7  1  0
  7  8  1  0
  7  9  1  0
  2 10  1  0
 10 11  1  0
 10 12  1  0
 10 13  1  0
M  END
$$$$

     RDKit          2D

 15 14  0  0  0  0  0  0  0  0999 V2000
   -1.2990    0.7500    0.0000 O   0  0  0  0  0  0  0  0  0  0  0  0
    0.0000    0.0000    0.0000 C   0  0  0  0  0  0  0  0  0  0  0  0
   -0.0000   -1.5000    0.0000 Cl  0  0  0  0  0  0  0  0  0  0  0  0
    1.2990    0.7500    0.0000 C   0  0  0  0  0  0  0  0  0  0  0  0
    0.5490    2.0490    0.0000 F   0  0  0  0  0  0  0  0  0  0  0  0
    2.0490   -0.5490    0.0000 F   0  0  0  0  0  0  0  0  0  0  0  0
    2.5981    1.5000    0.0000 C   0  0  0  0  0  0  0  0  0  0  0  0
    1.8481    2.7990    0.0000 F   0  0  0  0  0  0  0  0  0  0  0  0
    3.3481    0.2010    0.0000 F   0  0  0  0  0  0  0  0  0  0  0  0
    3.8971    2.2500    0.0000 C   0  0  0  0  0  0  0  0  0  0  0  0
    4.6471    0.9510    0.0000 F   0  0  0  0  0  0  0  0  0  0  0  0
    3.1471    3.5490    0.0000 F   0  0  0  0  0  0  0  0  0  0  0  0
    5.1962    3.0000    0.0000 C   0  0  0  0  0  0  0  0  0  0  0  0
    5.1962    4.5000    0.0000 O   0  0  0  0  0  0  0  0  0  0  0  0
    6.4952    2.2500    0.0000 Cl  0  0  0  0  0  0  0  0  0  0  0  0
  1  2  2  0
  2  3  1  0
  2  4  1  0
  4  5  1  0
  4  6  1  0
  4  7  1  0
  7  8  1  0
  7  9  1  0
  7 10  1  0
 10 11  1  0
 10 12  1  0
 10 13  1  0
 13 14  2  0
 13 15  1  0
M  END
$$$$

     RDKit          2D

 13 13  0  0  0  0  0  0  0  0999 V2000
    2.3907    1.0037    0.0000 F   0  0  0  0  0  0  0  0  0  0  0  0
    1.2760    0.0000    0.0000 C   0  0  0  0  0  0  0  0  0  0  0  0
    2.3907   -1.0037    0.0000 F   0  0  0  0  0  0  0  0  0  0  0  0
    0.3943    1.2135    0.0000 C   0  0  0  0  0  0  0  0  0  0  0  0
    0.8578    2.6401    0.0000 Cl  0  0  0  0  0  0  0  0  0  0  0  0
   -1.0323    0.7500    0.0000 C   0  0  0  0  0  0  0  0  0  0  0  0
   -2.2458    1.6317    0.0000 Cl  0  0  0  0  0  0  0  0  0  0  0  0
   -1.0323   -0.7500    0.0000 C   0  0  0  0  0  0  0  0  0  0  0  0
   -1.3442   -2.2172    0.0000 F   0  0  0  0  0  0  0  0  0  0  0  0
   -2.5241   -0.5932    0.0000 F   0  0  0  0  0  0  0  0  0  0  0  0
    0.3943   -1.2135    0.0000 C   0  0  0  0  0  0  0  0  0  0  0  0
    1.6933   -1.9635    0.0000 F   0  0  0  0  0  0  0  0  0  0  0  0
   -0.2158   -2.5838    0.0000 F   0  0  0  0  0  0  0  0  0  0  0  0
  1  2  1  0
  2  3  1  0
  2  4  1  0
  4  5  1  0
  4  6  2  0
  6  7  1  0
  6  8  1  0
  8  9  1  0
  8 10  1  0
  8 11  1  0
 11 12  1  0
 11 13  1  0
 11  2  1  0
M  END
$$$$

     RDKit          2D

 23 25  0  0  0  0  0  0  0  0999 V2000
   -2.8322    9.4075    0.0000 F   0  0  0  0  0  0  0  0  0  0  0  0
   -2.9890    7.9158    0.0000 C   0  0  0  0  0  0  0  0  0  0  0  0
   -4.4807    8.0725    0.0000 F   0  0  0  0  0  0  0  0  0  0  0  0
   -1.4972    7.7590    0.0000 F   0  0  0  0  0  0  0  0  0  0  0  0
   -3.1458    6.4240    0.0000 C   0  0  0  0  0  0  0  0  0  0  0  0
   -1.6540    6.2672    0.0000 F   0  0  0  0  0  0  0  0  0  0  0  0
   -4.6375    6.5808    0.0000 F   0  0  0  0  0  0  0  0  0  0  0  0
   -3.3025    4.9322    0.0000 C   0  0  0  0  0  0  0  0  0  0  0  0
   -1.8108    4.7754    0.0000 F   0  0  0  0  0  0  0  0  0  0  0  0
   -4.7943    5.0890    0.0000 F   0  0  0  0  0  0  0  0  0  0  0  0
   -3.4593    3.4404    0.0000 O   0  0  0  0  0  0  0  0  0  0  0  0
   -2.2458    2.5587    0.0000 C   0  0  0  0  0  0  0  0  0  0  0  0
   -1.3641    3.7723    0.0000 F   0  0  0  0  0  0  0  0  0  0  0  0
   -1.0323    1.6771    0.0000 C   0  0  0  0  0  0  0  0  0  0  0  0
    0.3943    1.2135    0.0000 C   0  0  0  0  0  0  0  0  0  0  0  0
    1.2760    0.0000    0.0000 C   0  0  0  0  0  0  0  0  0  0  0  0
    0.3943   -1.2135    0.0000 C   0  0  0  0  0  0  0  0  0  0  0  0
   -1.0323   -0.7500    0.0000 C   0  0  0  0  0  0  0  0  0  0  0  0
   -1.0323    0.7500    0.0000 C   0  0  0  0  0  0  0  0  0  0  0  0
   -1.9140    0.4635    0.0000 C   0  0  0  0  0  0  0  0  0  0  0  0
   -3.1275    1.3452    0.0000 C   0  0  0  0  0  0  0  0  0  0  0  0
   -4.0092    0.1317    0.0000 F   0  0  0  0  0  0  0  0  0  0  0  0
   -4.3410    2.2269    0.0000 F   0  0  0  0  0  0  0  0  0  0  0  0
  1  2  1  0
  2  3  1  0
  2  4  1  0
  2  5  1  0
  5  6  1  0
  5  7  1  0
  5  8  1  0
  8  9  1  0
  8 10  1  0
  8 11  1  0
 11 12  1  0
 12 13  1  0
 12 14  1  0
 14 15  1  0
 15 16  1  0
 16 17  2  0
 17 18  1  0
 18 19  1  0
 18 20  1  0
 20 21  1  0
 21 22  1  0
 21 23  1  0
 21 12  1  0
 20 14  1  0
 19 15  1  0
M  END
$$$$

     RDKit          2D

 14 14  0  0  0  0  0  0  0  0999 V2000
    9.8660   -2.5981    0.0000 F   0  0  0  0  0  0  0  0  0  0  0  0
    8.3660   -2.5981    0.0000 C   0  0  0  0  0  0  0  0  0  0  0  0
    8.3660   -1.0981    0.0000 F   0  0  0  0  0  0  0  0  0  0  0  0
    8.3660   -4.0981    0.0000 F   0  0  0  0  0  0  0  0  0  0  0  0
    6.8660   -2.5981    0.0000 C   0  0  0  0  0  0  0  0  0  0  0  0
    6.8660   -4.0981    0.0000 F   0  0  0  0  0  0  0  0  0  0  0  0
    6.8660   -1.0981    0.0000 F   0  0  0  0  0  0  0  0  0  0  0  0
    5.3660   -2.5981    0.0000 C   0  0  0  0  0  0  0  0  0  0  0  0
    4.6160   -1.2990    0.0000 C   0  0  0  0  0  0  0  0  0  0  0  0
    3.1160   -1.2990    0.0000 S   0  0  0  0  0  0  0  0  0  0  0  0
    2.3660    0.0000    0.0000 C   0  0  0  0  0  0  0  0  0  0  0  0
    0.8660    0.0000    0.0000 C   0  0  0  0  0  0  0  0  0  0  0  0
   -0.4330    0.7500    0.0000 C   0  0  0  0  0  0  0  0  0  0  0  0
   -0.4330   -0.7500    0.0000 O   0  0  0  0  0  0  0  0  0  0  0  0
  1  2  1  0
  2  3  1  0
  2  4  1  0
  2  5  1  0
  5  6  1  0
  5  7  1  0
  5  8  1  0
  8  9  1  0
  9 10  1  0
 10 11  1  0
 11 12  1  0
 12 13  1  0
 13 14  1  0
 14 12  1  0
M  END
$$$$

     RDKit          2D

 31 30  0  0  0  0  0  0  0  0999 V2000
   -3.3481    1.2990    0.0000 O   0  0  0  0  0  0  0  0  0  0  0  0
   -2.5981    0.0000    0.0000 P   0  0  0  0  0  0  0  0  0  0  0  0
   -1.8481   -1.2990    0.0000 O   0  0  0  0  0  0  0  0  0  0  0  0
   -3.8971   -0.7500    0.0000 O   0  0  0  0  0  0  0  0  0  0  0  0
   -1.2990    0.7500    0.0000 O   0  0  0  0  0  0  0  0  0  0  0  0
    0.0000    0.0000    0.0000 C   0  0  0  0  0  0  0  0  0  0  0  0
    1.2990    0.7500    0.0000 C   0  0  0  0  0  0  0  0  0  0  0  0
    2.5981    1.5000    0.0000 C   0  0  0  0  0  0  0  0  0  0  0  0
    2.5981    3.0000    0.0000 O   0  0  0  0  0  0  0  0  0  0  0  0
    0.5490    2.0490    0.0000 C   0  0  0  0  0  0  0  0  0  0  0  0
    1.2990    3.3481    0.0000 S   0  0  0  0  0  0  0  0  0  0  0  0
    0.5490    4.6471    0.0000 C   0  0  0  0  0  0  0  0  0  0  0  0
    1.2990    5.9462    0.0000 C   0  0  0  0  0  0  0  0  0  0  0  0
    0.5490    7.2452    0.0000 C   0  0  0  0  0  0  0  0  0  0  0  0
    1.8481    7.9952    0.0000 F   0  0  0  0  0  0  0  0  0  0  0  0
   -0.7500    6.4952    0.0000 F   0  0  0  0  0  0  0  0  0  0  0  0
   -0.2010    8.5442    0.0000 C   0  0  0  0  0  0  0  0  0  0  0  0
   -0.9510    9.8433    0.0000 F   0  0  0  0  0  0  0  0  0  0  0  0
   -1.5000    7.7942    0.0000 F   0  0  0  0  0  0  0  0  0  0  0  0
    1.0981    9.2942    0.0000 F   0  0  0  0  0  0  0  0  0  0  0  0
    2.0490   -0.5490    0.0000 C   0  0  0  0  0  0  0  0  0  0  0  0
    3.5490   -0.5490    0.0000 S   0  0  0  0  0  0  0  0  0  0  0  0
    4.2990   -1.8481    0.0000 C   0  0  0  0  0  0  0  0  0  0  0  0
    5.7990   -1.8481    0.0000 C   0  0  0  0  0  0  0  0  0  0  0  0
    6.5490   -3.1471    0.0000 C   0  0  0  0  0  0  0  0  0  0  0  0
    7.8481   -2.3971    0.0000 F   0  0  0  0  0  0  0  0  0  0  0  0
    5.2500   -3.8971    0.0000 F   0  0  0  0  0  0  0  0  0  0  0  0
    7.2990   -4.4462    0.0000 C   0  0  0  0  0  0  0  0  0  0  0  0
    8.0490   -5.7452    0.0000 F   0  0  0  0  0  0  0  0  0  0  0  0
    6.0000   -5.1962    0.0000 F   0  0  0  0  0  0  0  0  0  0  0  0
    8.5981   -3.6962    0.0000 F   0  0  0  0  0  0  0  0  0  0  0  0
  1  2  2  0
  2  3  1  0
  2  4  1  0
  2  5  1  0
  5  6  1  0
  6  7  1  0
  7  8  1  0
  8  9  1  0
  7 10  1  0
 10 11  1  0
 11 12  1  0
 12 13  1  0
 13 14  1  0
 14 15  1  0
 14 16  1  0
 14 17  1  0
 17 18  1  0
 17 19  1  0
 17 20  1  0
  7 21  1  0
 21 22  1  0
 22 23  1  0
 23 24  1  0
 24 25  1  0
 25 26  1  0
 25 27  1  0
 25 28  1  0
 28 29  1  0
 28 30  1  0
 28 31  1  0
M  END
$$$$

     RDKit          2D

 14 11  0  0  0  0  0  0  0  0999 V2000
   -3.5490   -0.5490    0.0000 O   0  0  0  0  0  0  0  0  0  0  0  0
   -2.2500   -1.2990    0.0000 P   0  0  0  0  0  0  0  0  0  0  0  0
   -0.9510   -2.0490    0.0000 O   0  0  0  0  0  0  0  0  0  0  0  0
   -3.0000   -2.5981    0.0000 O   0  0  0  0  0  0  0  0  0  0  0  0
   -1.5000    0.0000    0.0000 O   0  0  0  0  0  0  0  0  0  0  0  0
    0.0000    0.0000    0.0000 C   0  0  0  0  0  0  0  0  0  0  0  0
    0.0000    1.5000    0.0000 F   0  0  0  0  0  0  0  0  0  0  0  0
   -0.0000   -1.5000    0.0000 F   0  0  0  0  0  0  0  0  0  0  0  0
    1.5000    0.0000    0.0000 C   0  0  0  0  0  0  0  0  0  0  0  0
    3.0000    0.0000    0.0000 F   0  0  0  0  0  0  0  0  0  0  0  0
    1.5000   -1.5000    0.0000 F   0  0  0  0  0  0  0  0  0  0  0  0
    1.5000    1.5000    0.0000 F   0  0  0  0  0  0  0  0  0  0  0  0
    0.0000    2.5000    0.0000 N   0  0  0  0  0  0  0  0  0  0  0  0
    0.0000    3.5000    0.0000 N   0  0  0  0  0  0  0  0  0  0  0  0
  1  2  2  0
  2  3  1  0
  2  4  1  0
  2  5  1  0
  5  6  1  0
  6  7  1  0
  6  8  1  0
  6  9  1  0
  9 10  1  0
  9 11  1  0
  9 12  1  0
M  CHG  4   3  -1   4  -1  13   1  14   1
M  END
$$$$

     RDKit          2D

 47 45  0  0  0  0  0  0  0  0999 V2000
   -0.0000    0.0000    0.0000 C   0  0  0  0  0  0  0  0  0  0  0  0
    1.2990    0.7500    0.0000 C   0  0  0  0  0  0  0  0  0  0  0  0
    2.5981    0.0000    0.0000 C   0  0  0  0  0  0  0  0  0  0  0  0
    3.8971    0.7500    0.0000 N   0  0  0  0  0  0  0  0  0  0  0  0
    5.1962   -0.0000    0.0000 C   0  0  0  0  0  0  0  0  0  0  0  0
    6.4952    0.7500    0.0000 C   0  0  0  0  0  0  0  0  0  0  0  0
    7.7942   -0.0000    0.0000 O   0  0  0  0  0  0  0  0  0  0  0  0
    9.0933    0.7500    0.0000 C   0  0  0  0  0  0  0  0  0  0  0  0
   10.3923   -0.0000    0.0000 C   0  0  0  0  0  0  0  0  0  0  0  0
   11.6913    0.7500    0.0000 O   0  0  0  0  0  0  0  0  0  0  0  0
   12.9904   -0.0000    0.0000 C   0  0  0  0  0  0  0  0  0  0  0  0
   14.2894    0.7500    0.0000 C   0  0  0  0  0  0  0  0  0  0  0  0
   15.5885   -0.0000    0.0000 C   0  0  0  0  0  0  0  0  0  0  0  0
   16.8875    0.7500    0.0000 C   0  0  0  0  0  0  0  0  0  0  0  0
   18.1865   -0.0000    0.0000 S   0  0  0  0  0  0  0  0  0  0  0  0
   18.9365    1.2990    0.0000 O   0  0  0  0  0  0  0  0  0  0  0  0
   17.4365   -1.2990    0.0000 O   0  0  0  0  0  0  0  0  0  0  0  0
   19.4856   -0.7500    0.0000 O   0  0  0  0  0  0  0  0  0  0  0  0
    3.8971    2.2500    0.0000 S   0  0  0  0  0  0  0  0  0  0  0  0
    3.1059    2.1528    0.0000 O   0  0  0  0  0  0  0  0  0  0  0  0
    5.3971    2.2500    0.0000 O   0  0  0  0  0  0  0  0  0  0  0  0
    3.8971    3.7500    0.0000 C   0  0  0  0  0  0  0  0  0  0  0  0
    5.3971    3.7500    0.0000 F   0  0  0  0  0  0  0  0  0  0  0  0
    3.8971    5.2500    0.0000 F   0  0  0  0  0  0  0  0  0  0  0  0
    2.3971    3.7500    0.0000 C   0  0  0  0  0  0  0  0  0  0  0  0
    2.3971    5.2500    0.0000 F   0  0  0  0  0  0  0  0  0  0  0  0
    2.2891    2.8709    0.0000 F   0  0  0  0  0  0  0  0  0  0  0  0
    0.8971    3.7500    0.0000 C   0  0  0  0  0  0  0  0  0  0  0  0
    0.8971    5.2500    0.0000 F   0  0  0  0  0  0  0  0  0  0  0  0
    0.8971    2.2500    0.0000 F   0  0  0  0  0  0  0  0  0  0  0  0
   -0.6029    3.7500    0.0000 C   0  0  0  0  0  0  0  0  0  0  0  0
   -0.6029    5.2500    0.0000 F   0  0  0  0  0  0  0  0  0  0  0  0
   -0.6029    2.2500    0.0000 F   0  0  0  0  0  0  0  0  0  0  0  0
   -2.1029    3.7500    0.0000 C   0  0  0  0  0  0  0  0  0  0  0  0
   -2.1029    5.2500    0.0000 F   0  0  0  0  0  0  0  0  0  0  0  0
   -2.1029    2.2500    0.0000 F   0  0  0  0  0  0  0  0  0  0  0  0
   -3.6029    3.7500    0.0000 C   0  0  0  0  0  0  0  0  0  0  0  0
   -3.6029    2.2500    0.0000 F   0  0  0  0  0  0  0  0  0  0  0  0
   -3.6029    5.2500    0.0000 F   0  0  0  0  0  0  0  0  0  0  0  0
   -5.1029    3.7500    0.0000 C   0  0  0  0  0  0  0  0  0  0  0  0
   -5.1029    5.2500    0.0000 F   0  0  0  0  0  0  0  0  0  0  0  0
   -5.1029    2.2500    0.0000 F   0  0  0  0  0  0  0  0  0  0  0  0
   -6.6029    3.7500    0.0000 C   0  0  0  0  0  0  0  0  0  0  0  0
   -8.1029    3.7500    0.0000 F   0  0  0  0  0  0  0  0  0  0  0  0
   -6.6029    2.2500    0.0000 F   0  0  0  0  0  0  0  0  0  0  0  0
   -6.6029    5.2500    0.0000 F   0  0  0  0  0  0  0  0  0  0  0  0
    0.0000    6.2500    0.0000 Na  0  0  0  0  0 15  0  0  0  0  0  0
  1  2  1  0
  2  3  1  0
  3  4  1  0
  4  5  1  0
  5  6  1  0
  6  7  1  0
  7  8  1  0
  8  9  1  0
  9 10  1  0
 10 11  1  0
 11 12  1  0
 12 13  1  0
 13 14  1  0
 14 15  1  0
 15 16  2  0
 15 17  2  0
 15 18  1  0
  4 19  1  0
 19 20  2  0
 19 21  2  0
 19 22  1  0
 22 23  1  0
 22 24  1  0
 22 25  1  0
 25 26  1  0
 25 27  1  0
 25 28  1  0
 28 29  1  0
 28 30  1  0
 28 31  1  0
 31 32  1  0
 31 33  1  0
 31 34  1  0
 34 35  1  0
 34 36  1  0
 34 37  1  0
 37 38  1  0
 37 39  1  0
 37 40  1  0
 40 41  1  0
 40 42  1  0
 40 43  1  0
 43 44  1  0
 43 45  1  0
 43 46  1  0
M  CHG  2  18  -1  47   1
M  END
$$$$

     RDKit          2D

 15 13  0  0  0  0  0  0  0  0999 V2000
   -1.8481   -1.2990    0.0000 O   0  0  0  0  0  0  0  0  0  0  0  0
   -2.5981    0.0000    0.0000 S   0  0  0  0  0  0  0  0  0  0  0  0
   -3.3481    1.2990    0.0000 O   0  0  0  0  0  0  0  0  0  0  0  0
   -3.8971   -0.7500    0.0000 O   0  0  0  0  0  0  0  0  0  0  0  0
   -1.2990    0.7500    0.0000 O   0  0  0  0  0  0  0  0  0  0  0  0
    0.0000    0.0000    0.0000 C   0  0  0  0  0  0  0  0  0  0  0  0
    1.2990    0.7500    0.0000 C   0  0  0  0  0  0  0  0  0  0  0  0
    2.5981   -0.0000    0.0000 C   0  0  0  0  0  0  0  0  0  0  0  0
    3.3481    1.2990    0.0000 F   0  0  0  0  0  0  0  0  0  0  0  0
    1.8481   -1.2990    0.0000 F   0  0  0  0  0  0  0  0  0  0  0  0
    3.8971   -0.7500    0.0000 C   0  0  0  0  0  0  0  0  0  0  0  0
    5.1962   -1.5000    0.0000 F   0  0  0  0  0  0  0  0  0  0  0  0
    3.1471   -2.0490    0.0000 F   0  0  0  0  0  0  0  0  0  0  0  0
    4.6471    0.5490    0.0000 F   0  0  0  0  0  0  0  0  0  0  0  0
    0.0000    2.2990    0.0000 N   0  0  0  0  0  0  0  0  0  0  0  0
  1  2  2  0
  2  3  2  0
  2  4  1  0
  2  5  1  0
  5  6  1  0
  6  7  1  0
  7  8  1  0
  8  9  1  0
  8 10  1  0
  8 11  1  0
 11 12  1  0
 11 13  1  0
 11 14  1  0
M  CHG  2   4  -1  15   1
M  END
$$$$

     RDKit          2D

  5  4  0  0  0  0  0  0  0  0999 V2000
    1.5000    0.0000    0.0000 F   0  0  0  0  0  0  0  0  0  0  0  0
    0.0000    0.0000    0.0000 C   0  0  0  0  0  0  0  0  0  0  0  0
   -1.5000    0.0000    0.0000 F   0  0  0  0  0  0  0  0  0  0  0  0
    0.0000    1.5000    0.0000 F   0  0  0  0  0  0  0  0  0  0  0  0
   -0.0000   -1.5000    0.0000 I   0  0  0  0  0  0  0  0  0  0  0  0
  1  2  1  0
  2  3  1  0
  2  4  1  0
  2  5  1  0
M  END
$$$$

     RDKit          2D

 27 25  0  0  0  0  0  0  0  0999 V2000
    2.5981   -0.0000    0.0000 O   0  0  0  0  0  0  0  0  0  0  0  0
    1.2990    0.7500    0.0000 C   0  0  0  0  0  0  0  0  0  0  0  0
    0.0000    0.0000    0.0000 C   0  0  0  0  0  0  0  0  0  0  0  0
   -1.2990    0.7500    0.0000 C   0  0  0  0  0  0  0  0  0  0  0  0
   -2.5981    0.0000    0.0000 C   0  0  0  0  0  0  0  0  0  0  0  0
   -3.8971    0.7500    0.0000 O   0  0  0  0  0  0  0  0  0  0  0  0
   -2.5981   -1.5000    0.0000 O   0  0  0  0  0  0  0  0  0  0  0  0
   -3.8971   -2.2500    0.0000 C   0  0  0  0  0  0  0  0  0  0  0  0
   -4.6471   -0.9510    0.0000 F   0  0  0  0  0  0  0  0  0  0  0  0
   -3.1471   -3.5490    0.0000 F   0  0  0  0  0  0  0  0  0  0  0  0
   -5.1962   -3.0000    0.0000 C   0  0  0  0  0  0  0  0  0  0  0  0
   -6.4952   -3.7500    0.0000 F   0  0  0  0  0  0  0  0  0  0  0  0
   -5.9462   -1.7010    0.0000 F   0  0  0  0  0  0  0  0  0  0  0  0
   -4.4462   -4.2990    0.0000 F   0  0  0  0  0  0  0  0  0  0  0  0
   -1.2990    2.2500    0.0000 S   0  0  0  0  0  0  0  0  0  0  0  0
   -2.7990    2.2500    0.0000 O   0  0  0  0  0  0  0  0  0  0  0  0
    0.2010    2.2500    0.0000 O   0  0  0  0  0  0  0  0  0  0  0  0
   -1.2990    3.7500    0.0000 O   0  0  0  0  0  0  0  0  0  0  0  0
    1.2990    2.2500    0.0000 O   0  0  0  0  0  0  0  0  0  0  0  0
    2.5981    3.0000    0.0000 C   0  0  0  0  0  0  0  0  0  0  0  0
    3.3481    1.7010    0.0000 F   0  0  0  0  0  0  0  0  0  0  0  0
    1.8481    4.2990    0.0000 F   0  0  0  0  0  0  0  0  0  0  0  0
    3.8971    3.7500    0.0000 C   0  0  0  0  0  0  0  0  0  0  0  0
    5.1962    4.5000    0.0000 F   0  0  0  0  0  0  0  0  0  0  0  0
    4.6471    2.4510    0.0000 F   0  0  0  0  0  0  0  0  0  0  0  0
    3.1471    5.0490    0.0000 F   0  0  0  0  0  0  0  0  0  0  0  0
    0.0000    6.0490    0.0000 Na  0  0  0  0  0 15  0  0  0  0  0  0
  1  2  2  0
  2  3  1  0
  3  4  1  0
  4  5  1  0
  5  6  2  0
  5  7  1  0
  7  8  1  0
  8  9  1  0
  8 10  1  0
  8 11  1  0
 11 12  1  0
 11 13  1  0
 11 14  1  0
  4 15  1  0
 15 16  2  0
 15 17  2  0
 15 18  1  0
  2 19  1  0
 19 20  1  0
 20 21  1  0
 20 22  1  0
 20 23  1  0
 23 24  1  0
 23 25  1  0
 23 26  1  0
M  CHG  2  18  -1  27   1
M  END
$$$$

     RDKit          2D

 28 26  0  0  0  0  0  0  0  0999 V2000
    0.0000    0.0000    0.0000 Li  0  0  0  0  0 15  0  0  0  0  0  0
    4.0000   -1.5000    0.0000 O   0  0  0  0  0  0  0  0  0  0  0  0
    4.0000    0.0000    0.0000 C   0  0  0  0  0  0  0  0  0  0  0  0
    2.5000    0.0000    0.0000 C   0  0  0  0  0  0  0  0  0  0  0  0
    1.0000    0.0000    0.0000 F   0  0  0  0  0  0  0  0  0  0  0  0
    2.5000   -1.5000    0.0000 F   0  0  0  0  0  0  0  0  0  0  0  0
    2.3920    0.8791    0.0000 F   0  0  0  0  0  0  0  0  0  0  0  0
    4.0000    1.5000    0.0000 C   0  0  0  0  0  0  0  0  0  0  0  0
    4.0000    3.0000    0.0000 F   0  0  0  0  0  0  0  0  0  0  0  0
    3.1209    1.6080    0.0000 F   0  0  0  0  0  0  0  0  0  0  0  0
    4.8791    1.6080    0.0000 F   0  0  0  0  0  0  0  0  0  0  0  0
    5.5000    0.0000    0.0000 C   0  0  0  0  0  0  0  0  0  0  0  0
    5.5000   -1.5000    0.0000 F   0  0  0  0  0  0  0  0  0  0  0  0
    5.6080    0.8791    0.0000 F   0  0  0  0  0  0  0  0  0  0  0  0
    7.0000    0.0000    0.0000 C   0  0  0  0  0  0  0  0  0  0  0  0
    7.0000    1.5000    0.0000 F   0  0  0  0  0  0  0  0  0  0  0  0
    6.8920   -0.8791    0.0000 F   0  0  0  0  0  0  0  0  0  0  0  0
    8.5000    0.0000    0.0000 O   0  0  0  0  0  0  0  0  0  0  0  0
    9.2500   -1.2990    0.0000 C   0  0  0  0  0  0  0  0  0  0  0  0
   10.0000   -2.5981    0.0000 F   0  0  0  0  0  0  0  0  0  0  0  0
    7.9510   -2.0490    0.0000 C   0  0  0  0  0  0  0  0  0  0  0  0
    6.6519   -2.7990    0.0000 F   0  0  0  0  0  0  0  0  0  0  0  0
    8.7010   -3.3481    0.0000 F   0  0  0  0  0  0  0  0  0  0  0  0
    7.2626   -1.4917    0.0000 F   0  0  0  0  0  0  0  0  0  0  0  0
   10.5490   -0.5490    0.0000 C   0  0  0  0  0  0  0  0  0  0  0  0
   11.8481    0.2010    0.0000 F   0  0  0  0  0  0  0  0  0  0  0  0
   11.2990   -1.8481    0.0000 F   0  0  0  0  0  0  0  0  0  0  0  0
    9.7990    0.7500    0.0000 F   0  0  0  0  0  0  0  0  0  0  0  0
  2  3  1  0
  3  4  1  0
  4  5  1  0
  4  6  1  0
  4  7  1  0
  3  8  1  0
  8  9  1  0
  8 10  1  0
  8 11  1  0
  3 12  1  0
 12 13  1  0
 12 14  1  0
 12 15  1  0
 15 16  1  0
 15 17  1  0
 15 18  1  0
 18 19  1  0
 19 20  1  0
 19 21  1  0
 21 22  1  0
 21 23  1  0
 21 24  1  0
 19 25  1  0
 25 26  1  0
 25 27  1  0
 25 28  1  0
M  CHG  2   1   1   2  -1
M  END
$$$$

     RDKit          2D

 16 14  0  0  0  0  0  0  0  0999 V2000
    0.0000    0.0000    0.0000 C   0  0  0  0  0  0  0  0  0  0  0  0
    1.2990    0.7500    0.0000 C   0  0  0  0  0  0  0  0  0  0  0  0
    2.5981   -0.0000    0.0000 C   0  0  0  0  0  0  0  0  0  0  0  0
    3.8971    0.7500    0.0000 C   0  0  0  0  0  0  0  0  0  0  0  0
    5.1962   -0.0000    0.0000 N   0  0  0  0  0  0  0  0  0  0  0  0
    2.5981   -1.5000    0.0000 C   0  0  0  0  0  0  0  0  0  0  0  0
    4.0981   -1.5000    0.0000 F   0  0  0  0  0  0  0  0  0  0  0  0
    1.0981   -1.5000    0.0000 F   0  0  0  0  0  0  0  0  0  0  0  0
    2.5981   -3.0000    0.0000 C   0  0  0  0  0  0  0  0  0  0  0  0
    1.0981   -3.0000    0.0000 F   0  0  0  0  0  0  0  0  0  0  0  0
    4.0981   -3.0000    0.0000 F   0  0  0  0  0  0  0  0  0  0  0  0
    2.5981   -4.5000    0.0000 C   0  0  0  0  0  0  0  0  0  0  0  0
    2.5981   -6.0000    0.0000 F   0  0  0  0  0  0  0  0  0  0  0  0
    4.0981   -4.5000    0.0000 F   0  0  0  0  0  0  0  0  0  0  0  0
    1.0981   -4.5000    0.0000 F   0  0  0  0  0  0  0  0  0  0  0  0
    6.1962    0.0000    0.0000 Cl  0  0  0  0  0  0  0  0  0  0  0  0
  1  2  1  0
  2  3  1  0
  3  4  1  0
  4  5  1  0
  3  6  1  0
  6  7  1  0
  6  8  1  0
  6  9  1  0
  9 10  1  0
  9 11  1  0
  9 12  1  0
 12 13  1  0
 12 14  1  0
 12 15  1  0
M  END
$$$$

     RDKit          2D

 16 16  0  0  0  0  0  0  0  0999 V2000
    4.5000    0.0000    0.0000 N   0  0  0  0  0  0  0  0  0  0  0  0
    3.0000    0.0000    0.0000 C   0  0  0  0  0  0  0  0  0  0  0  0
    1.5000    0.0000    0.0000 C   0  0  0  0  0  0  0  0  0  0  0  0
    0.7500   -1.2990    0.0000 C   0  0  0  0  0  0  0  0  0  0  0  0
   -0.7500   -1.2990    0.0000 C   0  0  0  0  0  0  0  0  0  0  0  0
   -1.5000    0.0000    0.0000 C   0  0  0  0  0  0  0  0  0  0  0  0
   -3.0000    0.0000    0.0000 O   0  0  0  0  0  0  0  0  0  0  0  0
   -3.7500    1.2990    0.0000 C   0  0  0  0  0  0  0  0  0  0  0  0
   -5.2500    1.2990    0.0000 C   0  0  0  0  0  0  0  0  0  0  0  0
   -5.2500    2.7990    0.0000 F   0  0  0  0  0  0  0  0  0  0  0  0
   -5.2500   -0.2010    0.0000 F   0  0  0  0  0  0  0  0  0  0  0  0
   -6.7500    1.2990    0.0000 C   0  0  0  0  0  0  0  0  0  0  0  0
   -7.5000    0.0000    0.0000 F   0  0  0  0  0  0  0  0  0  0  0  0
   -7.5000    2.5981    0.0000 F   0  0  0  0  0  0  0  0  0  0  0  0
   -0.7500    1.2990    0.0000 C   0  0  0  0  0  0  0  0  0  0  0  0
    0.7500    1.2990    0.0000 C   0  0  0  0  0  0  0  0  0  0  0  0
  1  2  3  0
  2  3  1  0
  3  4  2  0
  4  5  1  0
  5  6  2  0
  6  7  1  0
  7  8  1  0
  8  9  1  0
  9 10  1  0
  9 11  1  0
  9 12  1  0
 12 13  1  0
 12 14  1  0
  6 15  1  0
 15 16  2  0
 16  3  1  0
M  END
$$$$

     RDKit          2D

 14 15  0  0  0  0  0  0  0  0999 V2000
    3.0000    0.0000    0.0000 F   0  0  0  0  0  0  0  0  0  0  0  0
    1.5000    0.0000    0.0000 C   0  0  0  0  0  0  0  0  0  0  0  0
    0.7500   -1.2990    0.0000 C   0  0  0  0  0  0  0  0  0  0  0  0
   -0.7500   -1.2990    0.0000 C   0  0  0  0  0  0  0  0  0  0  0  0
   -1.5000    0.0000    0.0000 C   0  0  0  0  0  0  0  0  0  0  0  0
   -0.7500    1.2990    0.0000 C   0  0  0  0  0  0  0  0  0  0  0  0
    0.7500    1.2990    0.0000 C   0  0  0  0  0  0  0  0  0  0  0  0
   -1.7537    2.4138    0.0000 C   0  0  0  0  0  0  0  0  0  0  0  0
   -0.5402    3.2954    0.0000 F   0  0  0  0  0  0  0  0  0  0  0  0
   -2.5037    3.7128    0.0000 F   0  0  0  0  0  0  0  0  0  0  0  0
   -3.1240    1.8037    0.0000 O   0  0  0  0  0  0  0  0  0  0  0  0
   -2.9672    0.3119    0.0000 C   0  0  0  0  0  0  0  0  0  0  0  0
   -4.4672    0.3119    0.0000 F   0  0  0  0  0  0  0  0  0  0  0  0
   -3.1240   -1.1799    0.0000 F   0  0  0  0  0  0  0  0  0  0  0  0
  1  2  1  0
  2  3  2  0
  3  4  1  0
  4  5  2  0
  5  6  1  0
  6  7  2  0
  6  8  1  0
  8  9  1  0
  8 10  1  0
  8 11  1  0
 11 12  1  0
 12 13  1  0
 12 14  1  0
  7  2  1  0
 12  5  1  0
M  END
$$$$

     RDKit          2D

 17 16  0  0  0  0  0  0  0  0999 V2000
    0.0000    0.0000    0.0000 C   0  0  0  0  0  0  0  0  0  0  0  0
    1.2990    0.7500    0.0000 C   0  0  0  0  0  0  0  0  0  0  0  0
    2.5981   -0.0000    0.0000 C   0  0  0  0  0  0  0  0  0  0  0  0
    1.2990    2.2500    0.0000 C   0  0  0  0  0  0  0  0  0  0  0  0
    0.0000    3.0000    0.0000 O   0  0  0  0  0  0  0  0  0  0  0  0
    2.5981    3.0000    0.0000 O   0  0  0  0  0  0  0  0  0  0  0  0
    2.5981    4.5000    0.0000 C   0  0  0  0  0  0  0  0  0  0  0  0
    3.8971    5.2500    0.0000 C   0  0  0  0  0  0  0  0  0  0  0  0
    3.1471    6.5490    0.0000 F   0  0  0  0  0  0  0  0  0  0  0  0
    4.6471    3.9510    0.0000 F   0  0  0  0  0  0  0  0  0  0  0  0
    5.1962    6.0000    0.0000 C   0  0  0  0  0  0  0  0  0  0  0  0
    5.9462    4.7010    0.0000 F   0  0  0  0  0  0  0  0  0  0  0  0
    4.4462    7.2990    0.0000 F   0  0  0  0  0  0  0  0  0  0  0  0
    6.4952    6.7500    0.0000 C   0  0  0  0  0  0  0  0  0  0  0  0
    7.7942    7.5000    0.0000 F   0  0  0  0  0  0  0  0  0  0  0  0
    5.7452    8.0490    0.0000 F   0  0  0  0  0  0  0  0  0  0  0  0
    7.2452    5.4510    0.0000 F   0  0  0  0  0  0  0  0  0  0  0  0
  1  2  2  0
  2  3  1  0
  2  4  1  0
  4  5  2  0
  4  6  1  0
  6  7  1  0
  7  8  1  0
  8  9  1  0
  8 10  1  0
  8 11  1  0
 11 12  1  0
 11 13  1  0
 11 14  1  0
 14 15  1  0
 14 16  1  0
 14 17  1  0
M  END
$$$$

     RDKit          2D

 14 15  0  0  0  0  0  0  0  0999 V2000
    1.0037   -4.7220    0.0000 F   0  0  0  0  0  0  0  0  0  0  0  0
   -0.0000   -3.6073    0.0000 C   0  0  0  0  0  0  0  0  0  0  0  0
   -1.0037   -4.7220    0.0000 F   0  0  0  0  0  0  0  0  0  0  0  0
    1.2135   -2.7256    0.0000 C   0  0  0  0  0  0  0  0  0  0  0  0
    0.7500   -1.2990    0.0000 C   0  0  0  0  0  0  0  0  0  0  0  0
    1.5000    0.0000    0.0000 C   0  0  0  0  0  0  0  0  0  0  0  0
    0.7500    1.2990    0.0000 C   0  0  0  0  0  0  0  0  0  0  0  0
   -0.7500    1.2990    0.0000 C   0  0  0  0  0  0  0  0  0  0  0  0
   -1.5000    2.5981    0.0000 Br  0  0  0  0  0  0  0  0  0  0  0  0
   -1.5000    0.0000    0.0000 C   0  0  0  0  0  0  0  0  0  0  0  0
   -0.7500   -1.2990    0.0000 C   0  0  0  0  0  0  0  0  0  0  0  0
   -1.2135   -2.7256    0.0000 C   0  0  0  0  0  0  0  0  0  0  0  0
   -1.9635   -4.0247    0.0000 F   0  0  0  0  0  0  0  0  0  0  0  0
   -2.5838   -2.1155    0.0000 F   0  0  0  0  0  0  0  0  0  0  0  0
  1  2  1  0
  2  3  1  0
  2  4  1  0
  4  5  1  0
  5  6  2  0
  6  7  1  0
  7  8  2  0
  8  9  1  0
  8 10  1  0
 10 11  2  0
 11 12  1  0
 12 13  1  0
 12 14  1  0
 12  2  1  0
 11  5  1  0
M  END
$$$$

     RDKit          2D

 18 17  0  0  0  0  0  0  0  0999 V2000
    0.0000   -0.0000    0.0000 C   0  0  0  0  0  0  0  0  0  0  0  0
    1.2990    0.7500    0.0000 C   0  0  0  0  0  0  0  0  0  0  0  0
    2.5981   -0.0000    0.0000 C   0  0  0  0  0  0  0  0  0  0  0  0
    2.5981   -0.8857    0.0000 O   0  0  0  0  0  0  0  0  0  0  0  0
    3.8971    0.7500    0.0000 O   0  0  0  0  0  0  0  0  0  0  0  0
    5.1962   -0.0000    0.0000 C   0  0  0  0  0  0  0  0  0  0  0  0
    5.9462    1.2990    0.0000 C   0  0  0  0  0  0  0  0  0  0  0  0
    6.6962    2.5981    0.0000 F   0  0  0  0  0  0  0  0  0  0  0  0
    6.7615    0.9530    0.0000 F   0  0  0  0  0  0  0  0  0  0  0  0
    4.6471    2.0490    0.0000 F   0  0  0  0  0  0  0  0  0  0  0  0
    4.4462   -1.2990    0.0000 C   0  0  0  0  0  0  0  0  0  0  0  0
    3.6962   -2.5981    0.0000 F   0  0  0  0  0  0  0  0  0  0  0  0
    3.5947   -1.0549    0.0000 F   0  0  0  0  0  0  0  0  0  0  0  0
    5.1535   -1.8321    0.0000 F   0  0  0  0  0  0  0  0  0  0  0  0
    6.4952   -0.7500    0.0000 C   0  0  0  0  0  0  0  0  0  0  0  0
    7.7942   -1.5000    0.0000 F   0  0  0  0  0  0  0  0  0  0  0  0
    6.1491   -1.5653    0.0000 F   0  0  0  0  0  0  0  0  0  0  0  0
    7.0283   -0.0426    0.0000 F   0  0  0  0  0  0  0  0  0  0  0  0
  1  2  1  0
  2  3  1  0
  3  4  2  0
  3  5  1  0
  5  6  1  0
  6  7  1  0
  7  8  1  0
  7  9  1  0
  7 10  1  0
  6 11  1  0
 11 12  1  0
 11 13  1  0
 11 14  1  0
  6 15  1  0
 15 16  1  0
 15 17  1  0
 15 18  1  0
M  END
$$$$

     RDKit          2D

 26 25  0  0  0  0  0  0  0  0999 V2000
    0.0000    0.0000    0.0000 C   0  0  0  0  0  0  0  0  0  0  0  0
    1.2990    0.7500    0.0000 C   0  0  0  0  0  0  0  0  0  0  0  0
    2.5981   -0.0000    0.0000 C   0  0  0  0  0  0  0  0  0  0  0  0
    2.5981   -1.5000    0.0000 O   0  0  0  0  0  0  0  0  0  0  0  0
    3.8971    0.7500    0.0000 O   0  0  0  0  0  0  0  0  0  0  0  0
    5.1962   -0.0000    0.0000 C   0  0  0  0  0  0  0  0  0  0  0  0
    6.4952    0.7500    0.0000 C   0  0  0  0  0  0  0  0  0  0  0  0
    7.7942   -0.0000    0.0000 N   0  0  0  0  0  0  0  0  0  0  0  0
    9.0933    0.7500    0.0000 C   0  0  0  0  0  0  0  0  0  0  0  0
   10.3923   -0.0000    0.0000 C   0  0  0  0  0  0  0  0  0  0  0  0
    7.7942   -1.5000    0.0000 S   0  0  0  0  0  0  0  0  0  0  0  0
    6.2942   -1.5000    0.0000 O   0  0  0  0  0  0  0  0  0  0  0  0
    8.5854   -1.4028    0.0000 O   0  0  0  0  0  0  0  0  0  0  0  0
    7.7942   -3.0000    0.0000 C   0  0  0  0  0  0  0  0  0  0  0  0
    6.2942   -3.0000    0.0000 F   0  0  0  0  0  0  0  0  0  0  0  0
    7.7942   -4.5000    0.0000 F   0  0  0  0  0  0  0  0  0  0  0  0
    9.2942   -3.0000    0.0000 C   0  0  0  0  0  0  0  0  0  0  0  0
    9.4022   -2.1209    0.0000 F   0  0  0  0  0  0  0  0  0  0  0  0
    9.2942   -4.5000    0.0000 F   0  0  0  0  0  0  0  0  0  0  0  0
   10.7942   -3.0000    0.0000 C   0  0  0  0  0  0  0  0  0  0  0  0
   10.7942   -4.5000    0.0000 F   0  0  0  0  0  0  0  0  0  0  0  0
   10.7942   -1.5000    0.0000 F   0  0  0  0  0  0  0  0  0  0  0  0
   12.2942   -3.0000    0.0000 C   0  0  0  0  0  0  0  0  0  0  0  0
   13.7942   -3.0000    0.0000 F   0  0  0  0  0  0  0  0  0  0  0  0
   12.2942   -4.5000    0.0000 F   0  0  0  0  0  0  0  0  0  0  0  0
   12.2942   -1.5000    0.0000 F   0  0  0  0  0  0  0  0  0  0  0  0
  1  2  2  0
  2  3  1  0
  3  4  2  0
  3  5  1  0
  5  6  1  0
  6  7  1  0
  7  8  1  0
  8  9  1  0
  9 10  1  0
  8 11  1  0
 11 12  2  0
 11 13  2  0
 11 14  1  0
 14 15  1  0
 14 16  1  0
 14 17  1  0
 17 18  1  0
 17 19  1  0
 17 20  1  0
 20 21  1  0
 20 22  1  0
 20 23  1  0
 23 24  1  0
 23 25  1  0
 23 26  1  0
M  END
$$$$

     RDKit          2D

 19 18  0  0  0  0  0  0  0  0999 V2000
    0.0000    0.0000    0.0000 C   0  0  0  0  0  0  0  0  0  0  0  0
    1.2990    0.7500    0.0000 C   0  0  0  0  0  0  0  0  0  0  0  0
    2.5981    1.5000    0.0000 C   0  0  0  0  0  0  0  0  0  0  0  0
    2.0490   -0.5490    0.0000 C   0  0  0  0  0  0  0  0  0  0  0  0
    0.5490    2.0490    0.0000 C   0  0  0  0  0  0  0  0  0  0  0  0
   -0.9510    2.0490    0.0000 O   0  0  0  0  0  0  0  0  0  0  0  0
    1.2990    3.3481    0.0000 C   0  0  0  0  0  0  0  0  0  0  0  0
    0.5490    4.6471    0.0000 C   0  0  0  0  0  0  0  0  0  0  0  0
   -0.9510    4.6471    0.0000 O   0  0  0  0  0  0  0  0  0  0  0  0
    1.2990    5.9462    0.0000 C   0  0  0  0  0  0  0  0  0  0  0  0
    0.0000    6.6962    0.0000 F   0  0  0  0  0  0  0  0  0  0  0  0
    2.5981    5.1962    0.0000 F   0  0  0  0  0  0  0  0  0  0  0  0
    2.0490    7.2452    0.0000 C   0  0  0  0  0  0  0  0  0  0  0  0
    3.3481    6.4952    0.0000 F   0  0  0  0  0  0  0  0  0  0  0  0
    0.7500    7.9952    0.0000 F   0  0  0  0  0  0  0  0  0  0  0  0
    2.7990    8.5442    0.0000 C   0  0  0  0  0  0  0  0  0  0  0  0
    3.5490    9.8433    0.0000 F   0  0  0  0  0  0  0  0  0  0  0  0
    1.5000    9.2942    0.0000 F   0  0  0  0  0  0  0  0  0  0  0  0
    4.0981    7.7942    0.0000 F   0  0  0  0  0  0  0  0  0  0  0  0
  1  2  1  0
  2  3  1  0
  2  4  1  0
  2  5  1  0
  5  6  2  0
  5  7  1  0
  7  8  1  0
  8  9  2  0
  8 10  1  0
 10 11  1  0
 10 12  1  0
 10 13  1  0
 13 14  1  0
 13 15  1  0
 13 16  1  0
 16 17  1  0
 16 18  1  0
 16 19  1  0
M  END
$$$$

     RDKit          2D

 29 28  0  0  0  0  0  0  0  0999 V2000
   -1.2990    0.7500    0.0000 N   0  0  0  0  0  0  0  0  0  0  0  0
    0.0000    0.0000    0.0000 C   0  0  0  0  0  0  0  0  0  0  0  0
   -0.0000   -1.5000    0.0000 O   0  0  0  0  0  0  0  0  0  0  0  0
    1.2990    0.7500    0.0000 C   0  0  0  0  0  0  0  0  0  0  0  0
    2.0490   -0.5490    0.0000 F   0  0  0  0  0  0  0  0  0  0  0  0
    0.5490    2.0490    0.0000 F   0  0  0  0  0  0  0  0  0  0  0  0
    2.5981    1.5000    0.0000 C   0  0  0  0  0  0  0  0  0  0  0  0
    1.8481    2.7990    0.0000 F   0  0  0  0  0  0  0  0  0  0  0  0
    3.3481    0.2010    0.0000 F   0  0  0  0  0  0  0  0  0  0  0  0
    3.8971    2.2500    0.0000 C   0  0  0  0  0  0  0  0  0  0  0  0
    4.6471    0.9510    0.0000 F   0  0  0  0  0  0  0  0  0  0  0  0
    3.1471    3.5490    0.0000 F   0  0  0  0  0  0  0  0  0  0  0  0
    5.1962    3.0000    0.0000 C   0  0  0  0  0  0  0  0  0  0  0  0
    4.4462    4.2990    0.0000 F   0  0  0  0  0  0  0  0  0  0  0  0
    5.9462    1.7010    0.0000 F   0  0  0  0  0  0  0  0  0  0  0  0
    6.4952    3.7500    0.0000 C   0  0  0  0  0  0  0  0  0  0  0  0
    7.2452    2.4510    0.0000 F   0  0  0  0  0  0  0  0  0  0  0  0
    6.0154    4.3866    0.0000 F   0  0  0  0  0  0  0  0  0  0  0  0
    7.7942    4.5000    0.0000 O   0  0  0  0  0  0  0  0  0  0  0  0
    7.7942    6.0000    0.0000 C   0  0  0  0  0  0  0  0  0  0  0  0
    7.7942    7.5000    0.0000 F   0  0  0  0  0  0  0  0  0  0  0  0
    6.2942    6.0000    0.0000 C   0  0  0  0  0  0  0  0  0  0  0  0
    4.7942    6.0000    0.0000 F   0  0  0  0  0  0  0  0  0  0  0  0
    6.2942    7.5000    0.0000 F   0  0  0  0  0  0  0  0  0  0  0  0
    6.0085    5.2558    0.0000 F   0  0  0  0  0  0  0  0  0  0  0  0
    9.2942    6.0000    0.0000 C   0  0  0  0  0  0  0  0  0  0  0  0
   10.7942    6.0000    0.0000 F   0  0  0  0  0  0  0  0  0  0  0  0
    9.2942    7.5000    0.0000 F   0  0  0  0  0  0  0  0  0  0  0  0
    9.2942    4.5000    0.0000 F   0  0  0  0  0  0  0  0  0  0  0  0
  1  2  1  0
  2  3  2  0
  2  4  1  0
  4  5  1  0
  4  6  1  0
  4  7  1  0
  7  8  1  0
  7  9  1  0
  7 10  1  0
 10 11  1  0
 10 12  1  0
 10 13  1  0
 13 14  1  0
 13 15  1  0
 13 16  1  0
 16 17  1  0
 16 18  1  0
 16 19  1  0
 19 20  1  0
 20 21  1  0
 20 22  1  0
 22 23  1  0
 22 24  1  0
 22 25  1  0
 20 26  1  0
 26 27  1  0
 26 28  1  0
 26 29  1  0
M  END
$$$$

     RDKit          2D

 20 19  0  0  0  0  0  0  0  0999 V2000
    0.0000    0.0000    0.0000 C   0  0  0  0  0  0  0  0  0  0  0  0
    1.2990    0.7500    0.0000 O   0  0  0  0  0  0  0  0  0  0  0  0
    2.5981   -0.0000    0.0000 C   0  0  0  0  0  0  0  0  0  0  0  0
    2.5981   -1.5000    0.0000 O   0  0  0  0  0  0  0  0  0  0  0  0
    3.8971    0.7500    0.0000 C   0  0  0  0  0  0  0  0  0  0  0  0
    4.6471   -0.5490    0.0000 F   0  0  0  0  0  0  0  0  0  0  0  0
    3.1471    2.0490    0.0000 F   0  0  0  0  0  0  0  0  0  0  0  0
    5.1962    1.5000    0.0000 C   0  0  0  0  0  0  0  0  0  0  0  0
    4.4462    2.7990    0.0000 F   0  0  0  0  0  0  0  0  0  0  0  0
    5.9462    0.2010    0.0000 Cl  0  0  0  0  0  0  0  0  0  0  0  0
    6.4952    2.2500    0.0000 C   0  0  0  0  0  0  0  0  0  0  0  0
    7.2452    0.9510    0.0000 F   0  0  0  0  0  0  0  0  0  0  0  0
    5.7452    3.5490    0.0000 F   0  0  0  0  0  0  0  0  0  0  0  0
    7.7942    3.0000    0.0000 C   0  0  0  0  0  0  0  0  0  0  0  0
    7.0442    4.2990    0.0000 F   0  0  0  0  0  0  0  0  0  0  0  0
    8.5442    1.7010    0.0000 Cl  0  0  0  0  0  0  0  0  0  0  0  0
    9.0933    3.7500    0.0000 C   0  0  0  0  0  0  0  0  0  0  0  0
   10.3923    4.5000    0.0000 F   0  0  0  0  0  0  0  0  0  0  0  0
    9.8433    2.4510    0.0000 F   0  0  0  0  0  0  0  0  0  0  0  0
    8.3433    5.0490    0.0000 Cl  0  0  0  0  0  0  0  0  0  0  0  0
  1  2  1  0
  2  3  1  0
  3  4  2  0
  3  5  1  0
  5  6  1  0
  5  7  1  0
  5  8  1  0
  8  9  1  0
  8 10  1  0
  8 11  1  0
 11 12  1  0
 11 13  1  0
 11 14  1  0
 14 15  1  0
 14 16  1  0
 14 17  1  0
 17 18  1  0
 17 19  1  0
 17 20  1  0
M  END
$$$$

     RDKit          2D

 30 29  0  0  0  0  0  0  0  0999 V2000
    0.0000    0.0000    0.0000 C   0  0  0  0  0  0  0  0  0  0  0  0
    1.2990    0.7500    0.0000 C   0  0  0  0  0  0  0  0  0  0  0  0
    2.5981   -0.0000    0.0000 C   0  0  0  0  0  0  0  0  0  0  0  0
    1.2990    2.2500    0.0000 C   0  0  0  0  0  0  0  0  0  0  0  0
    2.5981    3.0000    0.0000 O   0  0  0  0  0  0  0  0  0  0  0  0
    0.0000    3.0000    0.0000 S   0  0  0  0  0  0  0  0  0  0  0  0
    0.0000    4.5000    0.0000 C   0  0  0  0  0  0  0  0  0  0  0  0
   -1.2990    5.2500    0.0000 C   0  0  0  0  0  0  0  0  0  0  0  0
   -1.2990    6.7500    0.0000 C   0  0  0  0  0  0  0  0  0  0  0  0
   -2.7990    6.7500    0.0000 F   0  0  0  0  0  0  0  0  0  0  0  0
    0.2010    6.7500    0.0000 F   0  0  0  0  0  0  0  0  0  0  0  0
   -1.2990    8.2500    0.0000 C   0  0  0  0  0  0  0  0  0  0  0  0
    0.2010    8.2500    0.0000 F   0  0  0  0  0  0  0  0  0  0  0  0
   -2.7990    8.2500    0.0000 F   0  0  0  0  0  0  0  0  0  0  0  0
   -1.2990    9.7500    0.0000 C   0  0  0  0  0  0  0  0  0  0  0  0
    0.2010    9.7500    0.0000 F   0  0  0  0  0  0  0  0  0  0  0  0
   -2.7990    9.7500    0.0000 F   0  0  0  0  0  0  0  0  0  0  0  0
   -1.2990   11.2500    0.0000 C   0  0  0  0  0  0  0  0  0  0  0  0
   -2.1782   11.1420    0.0000 F   0  0  0  0  0  0  0  0  0  0  0  0
    0.2010   11.2500    0.0000 F   0  0  0  0  0  0  0  0  0  0  0  0
   -1.2990   12.7500    0.0000 C   0  0  0  0  0  0  0  0  0  0  0  0
    0.2010   12.7500    0.0000 F   0  0  0  0  0  0  0  0  0  0  0  0
   -1.2990   14.2500    0.0000 C   0  0  0  0  0  0  0  0  0  0  0  0
   -1.2990   15.7500    0.0000 F   0  0  0  0  0  0  0  0  0  0  0  0
    0.2010   14.2500    0.0000 F   0  0  0  0  0  0  0  0  0  0  0  0
   -2.1782   14.3580    0.0000 F   0  0  0  0  0  0  0  0  0  0  0  0
   -2.7990   12.7500    0.0000 C   0  0  0  0  0  0  0  0  0  0  0  0
   -4.2990   12.7500    0.0000 F   0  0  0  0  0  0  0  0  0  0  0  0
   -2.9070   11.8709    0.0000 F   0  0  0  0  0  0  0  0  0  0  0  0
   -2.9070   13.6291    0.0000 F   0  0  0  0  0  0  0  0  0  0  0  0
  1  2  2  0
  2  3  1  0
  2  4  1  0
  4  5  2  0
  4  6  1  0
  6  7  1  0
  7  8  1  0
  8  9  1  0
  9 10  1  0
  9 11  1  0
  9 12  1  0
 12 13  1  0
 12 14  1  0
 12 15  1  0
 15 16  1  0
 15 17  1  0
 15 18  1  0
 18 19  1  0
 18 20  1  0
 18 21  1  0
 21 22  1  0
 21 23  1  0
 23 24  1  0
 23 25  1  0
 23 26  1  0
 21 27  1  0
 27 28  1  0
 27 29  1  0
 27 30  1  0
M  END
$$$$

     RDKit          2D

 40 39  0  0  0  0  0  0  0  0999 V2000
   -1.2990    0.7500    0.0000 O   0  0  0  0  0  0  0  0  0  0  0  0
    0.0000    0.0000    0.0000 C   0  0  0  0  0  0  0  0  0  0  0  0
    1.2990    0.7500    0.0000 C   0  0  0  0  0  0  0  0  0  0  0  0
    2.5981   -0.0000    0.0000 C   0  0  0  0  0  0  0  0  0  0  0  0
    3.3481    1.2990    0.0000 F   0  0  0  0  0  0  0  0  0  0  0  0
    1.8481   -1.2990    0.0000 F   0  0  0  0  0  0  0  0  0  0  0  0
    3.8971   -0.7500    0.0000 C   0  0  0  0  0  0  0  0  0  0  0  0
    3.1471   -2.0490    0.0000 F   0  0  0  0  0  0  0  0  0  0  0  0
    4.6471    0.5490    0.0000 F   0  0  0  0  0  0  0  0  0  0  0  0
    5.1962   -1.5000    0.0000 C   0  0  0  0  0  0  0  0  0  0  0  0
    5.9462   -0.2010    0.0000 F   0  0  0  0  0  0  0  0  0  0  0  0
    4.4462   -2.7990    0.0000 F   0  0  0  0  0  0  0  0  0  0  0  0
    6.4952   -2.2500    0.0000 C   0  0  0  0  0  0  0  0  0  0  0  0
    5.7452   -3.5490    0.0000 F   0  0  0  0  0  0  0  0  0  0  0  0
    7.2452   -0.9510    0.0000 F   0  0  0  0  0  0  0  0  0  0  0  0
    7.7942   -3.0000    0.0000 C   0  0  0  0  0  0  0  0  0  0  0  0
    8.5442   -1.7010    0.0000 F   0  0  0  0  0  0  0  0  0  0  0  0
    7.0442   -4.2990    0.0000 F   0  0  0  0  0  0  0  0  0  0  0  0
    9.0933   -3.7500    0.0000 C   0  0  0  0  0  0  0  0  0  0  0  0
    8.3433   -5.0490    0.0000 F   0  0  0  0  0  0  0  0  0  0  0  0
    9.8433   -2.4510    0.0000 F   0  0  0  0  0  0  0  0  0  0  0  0
   10.3923   -4.5000    0.0000 C   0  0  0  0  0  0  0  0  0  0  0  0
   11.1423   -3.2010    0.0000 F   0  0  0  0  0  0  0  0  0  0  0  0
    9.6423   -5.7990    0.0000 F   0  0  0  0  0  0  0  0  0  0  0  0
   11.6913   -5.2500    0.0000 C   0  0  0  0  0  0  0  0  0  0  0  0
   10.9413   -6.5490    0.0000 F   0  0  0  0  0  0  0  0  0  0  0  0
   12.4413   -3.9510    0.0000 F   0  0  0  0  0  0  0  0  0  0  0  0
   12.9904   -6.0000    0.0000 C   0  0  0  0  0  0  0  0  0  0  0  0
   13.7404   -4.7010    0.0000 F   0  0  0  0  0  0  0  0  0  0  0  0
   12.2404   -7.2990    0.0000 F   0  0  0  0  0  0  0  0  0  0  0  0
   14.2894   -6.7500    0.0000 C   0  0  0  0  0  0  0  0  0  0  0  0
   13.5394   -8.0490    0.0000 F   0  0  0  0  0  0  0  0  0  0  0  0
   15.0394   -5.4510    0.0000 F   0  0  0  0  0  0  0  0  0  0  0  0
   15.5885   -7.5000    0.0000 C   0  0  0  0  0  0  0  0  0  0  0  0
   16.3385   -6.2010    0.0000 F   0  0  0  0  0  0  0  0  0  0  0  0
   14.8385   -8.7990    0.0000 F   0  0  0  0  0  0  0  0  0  0  0  0
   16.8875   -8.2500    0.0000 C   0  0  0  0  0  0  0  0  0  0  0  0
   18.1865   -9.0000    0.0000 F   0  0  0  0  0  0  0  0  0  0  0  0
   16.1375   -9.5490    0.0000 F   0  0  0  0  0  0  0  0  0  0  0  0
   17.6375   -6.9510    0.0000 F   0  0  0  0  0  0  0  0  0  0  0  0
  1  2  1  0
  2  3  1  0
  3  4  1  0
  4  5  1  0
  4  6  1  0
  4  7  1  0
  7  8  1  0
  7  9  1  0
  7 10  1  0
 10 11  1  0
 10 12  1  0
 10 13  1  0
 13 14  1  0
 13 15  1  0
 13 16  1  0
 16 17  1  0
 16 18  1  0
 16 19  1  0
 19 20  1  0
 19 21  1  0
 19 22  1  0
 22 23  1  0
 22 24  1  0
 22 25  1  0
 25 26  1  0
 25 27  1  0
 25 28  1  0
 28 29  1  0
 28 30  1  0
 28 31  1  0
 31 32  1  0
 31 33  1  0
 31 34  1  0
 34 35  1  0
 34 36  1  0
 34 37  1  0
 37 38  1  0
 37 39  1  0
 37 40  1  0
M  END
$$$$

     RDKit          2D

 14 13  0  0  0  0  0  0  0  0999 V2000
    0.0000    0.0000    0.0000 C   0  0  0  0  0  0  0  0  0  0  0  0
    1.2990    0.7500    0.0000 C   0  0  0  0  0  0  0  0  0  0  0  0
    2.5981   -0.0000    0.0000 C   0  0  0  0  0  0  0  0  0  0  0  0
    1.2990    2.2500    0.0000 C   0  0  0  0  0  0  0  0  0  0  0  0
    0.0000    3.0000    0.0000 O   0  0  0  0  0  0  0  0  0  0  0  0
    2.5981    3.0000    0.0000 O   0  0  0  0  0  0  0  0  0  0  0  0
    2.5981    4.5000    0.0000 C   0  0  0  0  0  0  0  0  0  0  0  0
    3.8971    5.2500    0.0000 C   0  0  0  0  0  0  0  0  0  0  0  0
    3.1471    6.5490    0.0000 F   0  0  0  0  0  0  0  0  0  0  0  0
    4.6471    3.9510    0.0000 F   0  0  0  0  0  0  0  0  0  0  0  0
    5.1962    6.0000    0.0000 C   0  0  0  0  0  0  0  0  0  0  0  0
    6.4952    6.7500    0.0000 F   0  0  0  0  0  0  0  0  0  0  0  0
    5.9462    4.7010    0.0000 F   0  0  0  0  0  0  0  0  0  0  0  0
    4.4462    7.2990    0.0000 F   0  0  0  0  0  0  0  0  0  0  0  0
  1  2  2  0
  2  3  1  0
  2  4  1  0
  4  5  2  0
  4  6  1  0
  6  7  1  0
  7  8  1  0
  8  9  1  0
  8 10  1  0
  8 11  1  0
 11 12  1  0
 11 13  1  0
 11 14  1  0
M  END
$$$$

     RDKit          2D

 35 34  0  0  0  0  0  0  0  0999 V2000
   15.5885    0.0000    0.0000 C   0  0  0  0  0  0  0  0  0  0  0  0
   14.2894    0.7500    0.0000 C   0  0  0  0  0  0  0  0  0  0  0  0
   12.9904    0.0000    0.0000 C   0  0  0  0  0  0  0  0  0  0  0  0
   12.9904   -1.5000    0.0000 O   0  0  0  0  0  0  0  0  0  0  0  0
   11.6913    0.7500    0.0000 O   0  0  0  0  0  0  0  0  0  0  0  0
   10.3923    0.0000    0.0000 C   0  0  0  0  0  0  0  0  0  0  0  0
    9.0933    0.7500    0.0000 C   0  0  0  0  0  0  0  0  0  0  0  0
    7.7942   -0.0000    0.0000 N   0  0  0  0  0  0  0  0  0  0  0  0
    6.4952    0.7500    0.0000 C   0  0  0  0  0  0  0  0  0  0  0  0
    5.1962   -0.0000    0.0000 C   0  0  0  0  0  0  0  0  0  0  0  0
    7.7942   -1.5000    0.0000 S   0  0  0  0  0  0  0  0  0  0  0  0
    9.2942   -1.5000    0.0000 O   0  0  0  0  0  0  0  0  0  0  0  0
    7.0030   -1.4028    0.0000 O   0  0  0  0  0  0  0  0  0  0  0  0
    7.7942   -3.0000    0.0000 C   0  0  0  0  0  0  0  0  0  0  0  0
    9.2942   -3.0000    0.0000 F   0  0  0  0  0  0  0  0  0  0  0  0
    7.7942   -4.5000    0.0000 F   0  0  0  0  0  0  0  0  0  0  0  0
    6.2942   -3.0000    0.0000 C   0  0  0  0  0  0  0  0  0  0  0  0
    6.1863   -2.1209    0.0000 F   0  0  0  0  0  0  0  0  0  0  0  0
    6.2942   -4.5000    0.0000 F   0  0  0  0  0  0  0  0  0  0  0  0
    4.7942   -3.0000    0.0000 C   0  0  0  0  0  0  0  0  0  0  0  0
    4.7942   -1.5000    0.0000 F   0  0  0  0  0  0  0  0  0  0  0  0
    4.7942   -4.5000    0.0000 F   0  0  0  0  0  0  0  0  0  0  0  0
    3.2942   -3.0000    0.0000 C   0  0  0  0  0  0  0  0  0  0  0  0
    3.2942   -1.5000    0.0000 F   0  0  0  0  0  0  0  0  0  0  0  0
    3.2942   -4.5000    0.0000 F   0  0  0  0  0  0  0  0  0  0  0  0
    1.7942   -3.0000    0.0000 C   0  0  0  0  0  0  0  0  0  0  0  0
    1.7942   -4.5000    0.0000 F   0  0  0  0  0  0  0  0  0  0  0  0
    1.7942   -1.5000    0.0000 F   0  0  0  0  0  0  0  0  0  0  0  0
    0.2942   -3.0000    0.0000 C   0  0  0  0  0  0  0  0  0  0  0  0
    0.2942   -4.5000    0.0000 F   0  0  0  0  0  0  0  0  0  0  0  0
    0.2942   -1.5000    0.0000 F   0  0  0  0  0  0  0  0  0  0  0  0
   -1.2058   -3.0000    0.0000 C   0  0  0  0  0  0  0  0  0  0  0  0
   -2.7058   -3.0000    0.0000 F   0  0  0  0  0  0  0  0  0  0  0  0
   -1.2058   -1.5000    0.0000 F   0  0  0  0  0  0  0  0  0  0  0  0
   -1.2058   -4.5000    0.0000 F   0  0  0  0  0  0  0  0  0  0  0  0
  1  2  2  0
  2  3  1  0
  3  4  2  0
  3  5  1  0
  5  6  1  0
  6  7  1  0
  7  8  1  0
  8  9  1  0
  9 10  1  0
  8 11  1  0
 11 12  2  0
 11 13  2  0
 11 14  1  0
 14 15  1  0
 14 16  1  0
 14 17  1  0
 17 18  1  0
 17 19  1  0
 17 20  1  0
 20 21  1  0
 20 22  1  0
 20 23  1  0
 23 24  1  0
 23 25  1  0
 23 26  1  0
 26 27  1  0
 26 28  1  0
 26 29  1  0
 29 30  1  0
 29 31  1  0
 29 32  1  0
 32 33  1  0
 32 34  1  0
 32 35  1  0
M  END
$$$$

     RDKit          2D

 13 12  0  0  0  0  0  0  0  0999 V2000
   -0.0000   -1.5000    0.0000 F   0  0  0  0  0  0  0  0  0  0  0  0
    0.0000    0.0000    0.0000 C   0  0  0  0  0  0  0  0  0  0  0  0
   -1.2990    0.7500    0.0000 O   0  0  0  0  0  0  0  0  0  0  0  0
   -2.5981    0.0000    0.0000 C   0  0  0  0  0  0  0  0  0  0  0  0
   -3.8971   -0.7500    0.0000 F   0  0  0  0  0  0  0  0  0  0  0  0
   -3.3481    1.2990    0.0000 F   0  0  0  0  0  0  0  0  0  0  0  0
   -1.8481   -1.2990    0.0000 F   0  0  0  0  0  0  0  0  0  0  0  0
    1.2990    0.7500    0.0000 C   0  0  0  0  0  0  0  0  0  0  0  0
    1.2990    2.2500    0.0000 F   0  0  0  0  0  0  0  0  0  0  0  0
    2.5981   -0.0000    0.0000 C   0  0  0  0  0  0  0  0  0  0  0  0
    3.8971   -0.7500    0.0000 F   0  0  0  0  0  0  0  0  0  0  0  0
    3.3481    1.2990    0.0000 F   0  0  0  0  0  0  0  0  0  0  0  0
    1.8481   -1.2990    0.0000 F   0  0  0  0  0  0  0  0  0  0  0  0
  1  2  1  0
  2  3  1  0
  3  4  1  0
  4  5  1  0
  4  6  1  0
  4  7  1  0
  2  8  2  3
  8  9  1  0
  8 10  1  0
 10 11  1  0
 10 12  1  0
 10 13  1  0
M  END
$$$$

     RDKit          2D

 16 15  0  0  0  0  0  0  0  0999 V2000
    0.0000    0.0000    0.0000 C   0  0  0  0  0  0  0  0  0  0  0  0
    1.2990    0.7500    0.0000 C   0  0  0  0  0  0  0  0  0  0  0  0
    2.5981   -0.0000    0.0000 C   0  0  0  0  0  0  0  0  0  0  0  0
    3.8971    0.7500    0.0000 O   0  0  0  0  0  0  0  0  0  0  0  0
    2.5981   -1.5000    0.0000 O   0  0  0  0  0  0  0  0  0  0  0  0
    3.8971   -2.2500    0.0000 C   0  0  0  0  0  0  0  0  0  0  0  0
    4.6471   -0.9510    0.0000 F   0  0  0  0  0  0  0  0  0  0  0  0
    3.1471   -3.5490    0.0000 F   0  0  0  0  0  0  0  0  0  0  0  0
    5.1962   -3.0000    0.0000 C   0  0  0  0  0  0  0  0  0  0  0  0
    4.4462   -4.2990    0.0000 F   0  0  0  0  0  0  0  0  0  0  0  0
    5.9462   -1.7010    0.0000 F   0  0  0  0  0  0  0  0  0  0  0  0
    6.4952   -3.7500    0.0000 C   0  0  0  0  0  0  0  0  0  0  0  0
    6.4952   -5.2500    0.0000 C   0  0  0  0  0  0  0  0  0  0  0  0
    6.4952   -6.7500    0.0000 F   0  0  0  0  0  0  0  0  0  0  0  0
    7.9952   -5.2500    0.0000 F   0  0  0  0  0  0  0  0  0  0  0  0
    4.9952   -5.2500    0.0000 F   0  0  0  0  0  0  0  0  0  0  0  0
  1  2  2  0
  2  3  1  0
  3  4  2  0
  3  5  1  0
  5  6  1  0
  6  7  1  0
  6  8  1  0
  6  9  1  0
  9 10  1  0
  9 11  1  0
  9 12  1  0
 12 13  1  0
 13 14  1  0
 13 15  1  0
 13 16  1  0
M  END
$$$$

     RDKit          2D

 12 11  0  0  0  0  0  0  0  0999 V2000
    1.2990    2.2500    0.0000 C   0  0  0  0  0  0  0  0  0  0  0  0
    1.2990    0.7500    0.0000 C   0  0  0  0  0  0  0  0  0  0  0  0
    2.5981   -0.0000    0.0000 C   0  0  0  0  0  0  0  0  0  0  0  0
    3.8971   -0.7500    0.0000 C   0  0  0  0  0  0  0  0  0  0  0  0
    3.3481    1.2990    0.0000 O   0  0  0  0  0  0  0  0  0  0  0  0
    1.8481   -1.2990    0.0000 C   0  0  0  0  0  0  0  0  0  0  0  0
    3.1471   -2.0490    0.0000 F   0  0  0  0  0  0  0  0  0  0  0  0
    0.5490   -0.5490    0.0000 F   0  0  0  0  0  0  0  0  0  0  0  0
    1.0981   -2.5981    0.0000 C   0  0  0  0  0  0  0  0  0  0  0  0
    0.3481   -3.8971    0.0000 F   0  0  0  0  0  0  0  0  0  0  0  0
   -0.2010   -1.8481    0.0000 F   0  0  0  0  0  0  0  0  0  0  0  0
    2.3971   -3.3481    0.0000 F   0  0  0  0  0  0  0  0  0  0  0  0
  1  2  2  0
  2  3  1  0
  3  4  1  0
  3  5  1  0
  3  6  1  0
  6  7  1  0
  6  8  1  0
  6  9  1  0
  9 10  1  0
  9 11  1  0
  9 12  1  0
M  END
$$$$

     RDKit          2D

 16 16  0  0  0  0  0  0  0  0999 V2000
    2.7760    0.0000    0.0000 O   0  0  0  0  0  0  0  0  0  0  0  0
    1.2760    0.0000    0.0000 C   0  0  0  0  0  0  0  0  0  0  0  0
    0.3943    1.2135    0.0000 O   0  0  0  0  0  0  0  0  0  0  0  0
   -1.0323    0.7500    0.0000 C   0  0  0  0  0  0  0  0  0  0  0  0
   -2.5241    0.5932    0.0000 C   0  0  0  0  0  0  0  0  0  0  0  0
   -4.0159    0.4364    0.0000 F   0  0  0  0  0  0  0  0  0  0  0  0
   -2.3673   -0.8986    0.0000 F   0  0  0  0  0  0  0  0  0  0  0  0
   -2.7034    1.3699    0.0000 F   0  0  0  0  0  0  0  0  0  0  0  0
   -1.3442    2.2172    0.0000 C   0  0  0  0  0  0  0  0  0  0  0  0
   -1.6560    3.6844    0.0000 F   0  0  0  0  0  0  0  0  0  0  0  0
    0.1231    2.5291    0.0000 F   0  0  0  0  0  0  0  0  0  0  0  0
   -2.1383    2.1478    0.0000 F   0  0  0  0  0  0  0  0  0  0  0  0
   -1.0323   -0.7500    0.0000 N   0  0  0  0  0  0  0  0  0  0  0  0
    0.3943   -1.2135    0.0000 C   0  0  0  0  0  0  0  0  0  0  0  0
    0.8578   -2.6401    0.0000 C   0  0  0  0  0  0  0  0  0  0  0  0
   -0.1459   -3.7548    0.0000 O   0  0  0  0  0  0  0  0  0  0  0  0
  1  2  2  0
  2  3  1  0
  3  4  1  0
  4  5  1  0
  5  6  1  0
  5  7  1  0
  5  8  1  0
  4  9  1  0
  9 10  1  0
  9 11  1  0
  9 12  1  0
  4 13  1  0
 13 14  1  0
 14 15  1  0
 15 16  1  0
 14  2  1  0
M  END
$$$$

     RDKit          2D

 22 22  0  0  0  0  0  0  0  0999 V2000
    3.7500   -1.2990    0.0000 C   0  0  0  0  0  0  0  0  0  0  0  0
    3.0000    0.0000    0.0000 O   0  0  0  0  0  0  0  0  0  0  0  0
    1.5000    0.0000    0.0000 C   0  0  0  0  0  0  0  0  0  0  0  0
    0.7500   -1.2990    0.0000 C   0  0  0  0  0  0  0  0  0  0  0  0
   -0.7500   -1.2990    0.0000 C   0  0  0  0  0  0  0  0  0  0  0  0
   -1.5000    0.0000    0.0000 C   0  0  0  0  0  0  0  0  0  0  0  0
   -3.0000    0.0000    0.0000 N   0  0  0  0  0  0  0  0  0  0  0  0
   -3.7500   -1.2990    0.0000 C   0  0  0  0  0  0  0  0  0  0  0  0
   -3.0000   -2.5981    0.0000 Cl  0  0  0  0  0  0  0  0  0  0  0  0
   -5.2500   -1.2990    0.0000 C   0  0  0  0  0  0  0  0  0  0  0  0
   -5.2500    0.2010    0.0000 F   0  0  0  0  0  0  0  0  0  0  0  0
   -5.2500   -2.7990    0.0000 F   0  0  0  0  0  0  0  0  0  0  0  0
   -6.7500   -1.2990    0.0000 C   0  0  0  0  0  0  0  0  0  0  0  0
   -6.7500    0.2010    0.0000 F   0  0  0  0  0  0  0  0  0  0  0  0
   -6.7500   -2.7990    0.0000 F   0  0  0  0  0  0  0  0  0  0  0  0
   -8.2500   -1.2990    0.0000 C   0  0  0  0  0  0  0  0  0  0  0  0
   -9.7500   -1.2990    0.0000 F   0  0  0  0  0  0  0  0  0  0  0  0
   -8.2500   -2.7990    0.0000 F   0  0  0  0  0  0  0  0  0  0  0  0
   -8.2500    0.2010    0.0000 F   0  0  0  0  0  0  0  0  0  0  0  0
   -0.7500    1.2990    0.0000 C   0  0  0  0  0  0  0  0  0  0  0  0
   -1.5000    2.5981    0.0000 C   0  0  0  0  0  0  0  0  0  0  0  0
    0.7500    1.2990    0.0000 C   0  0  0  0  0  0  0  0  0  0  0  0
  1  2  1  0
  2  3  1  0
  3  4  2  0
  4  5  1  0
  5  6  2  0
  6  7  1  0
  7  8  2  0
  8  9  1  0
  8 10  1  0
 10 11  1  0
 10 12  1  0
 10 13  1  0
 13 14  1  0
 13 15  1  0
 13 16  1  0
 16 17  1  0
 16 18  1  0
 16 19  1  0
  6 20  1  0
 20 21  1  0
 20 22  2  0
 22  3  1  0
M  END
$$$$

     RDKit          2D

 36 35  0  0  0  0  0  0  0  0999 V2000
    7.0981    4.0981    0.0000 C   0  0  0  0  0  0  0  0  0  0  0  0
    5.7990    3.3481    0.0000 N   0  0  0  0  0  0  0  0  0  0  0  0
    4.5000    2.5981    0.0000 C   0  0  0  0  0  0  0  0  0  0  0  0
    5.0490    4.6471    0.0000 O   0  0  0  0  0  0  0  0  0  0  0  0
    6.5490    2.0490    0.0000 C   0  0  0  0  0  0  0  0  0  0  0  0
    5.7990    0.7500    0.0000 C   0  0  0  0  0  0  0  0  0  0  0  0
    6.5490   -0.5490    0.0000 C   0  0  0  0  0  0  0  0  0  0  0  0
    5.7990   -1.8481    0.0000 N   0  0  0  0  0  0  0  0  0  0  0  0
    6.5490   -3.1471    0.0000 S   0  0  0  0  0  0  0  0  0  0  0  0
    7.8481   -2.3971    0.0000 O   0  0  0  0  0  0  0  0  0  0  0  0
    5.8152   -3.4586    0.0000 O   0  0  0  0  0  0  0  0  0  0  0  0
    7.2990   -4.4462    0.0000 C   0  0  0  0  0  0  0  0  0  0  0  0
    8.5981   -3.6962    0.0000 F   0  0  0  0  0  0  0  0  0  0  0  0
    8.0490   -5.7452    0.0000 F   0  0  0  0  0  0  0  0  0  0  0  0
    6.0000   -5.1962    0.0000 C   0  0  0  0  0  0  0  0  0  0  0  0
    5.4669   -4.4888    0.0000 F   0  0  0  0  0  0  0  0  0  0  0  0
    6.7500   -6.4952    0.0000 F   0  0  0  0  0  0  0  0  0  0  0  0
    4.7010   -5.9462    0.0000 C   0  0  0  0  0  0  0  0  0  0  0  0
    5.4510   -7.2452    0.0000 F   0  0  0  0  0  0  0  0  0  0  0  0
    3.9510   -4.6471    0.0000 F   0  0  0  0  0  0  0  0  0  0  0  0
    3.4019   -6.6962    0.0000 C   0  0  0  0  0  0  0  0  0  0  0  0
    2.6519   -5.3971    0.0000 F   0  0  0  0  0  0  0  0  0  0  0  0
    4.1519   -7.9952    0.0000 F   0  0  0  0  0  0  0  0  0  0  0  0
    2.1029   -7.4462    0.0000 C   0  0  0  0  0  0  0  0  0  0  0  0
    1.3529   -6.1471    0.0000 F   0  0  0  0  0  0  0  0  0  0  0  0
    2.8529   -8.7452    0.0000 F   0  0  0  0  0  0  0  0  0  0  0  0
    0.8038   -8.1962    0.0000 C   0  0  0  0  0  0  0  0  0  0  0  0
    1.5538   -9.4952    0.0000 F   0  0  0  0  0  0  0  0  0  0  0  0
    0.0538   -6.8971    0.0000 F   0  0  0  0  0  0  0  0  0  0  0  0
   -0.4952   -8.9462    0.0000 C   0  0  0  0  0  0  0  0  0  0  0  0
   -1.2452   -7.6471    0.0000 F   0  0  0  0  0  0  0  0  0  0  0  0
    0.2548  -10.2452    0.0000 F   0  0  0  0  0  0  0  0  0  0  0  0
   -1.7942   -9.6962    0.0000 C   0  0  0  0  0  0  0  0  0  0  0  0
   -3.0933  -10.4462    0.0000 F   0  0  0  0  0  0  0  0  0  0  0  0
   -1.0442  -10.9952    0.0000 F   0  0  0  0  0  0  0  0  0  0  0  0
   -2.5442   -8.3971    0.0000 F   0  0  0  0  0  0  0  0  0  0  0  0
  1  2  1  0
  2  3  1  0
  2  4  1  0
  2  5  1  0
  5  6  1  0
  6  7  1  0
  7  8  1  0
  8  9  1  0
  9 10  2  0
  9 11  2  0
  9 12  1  0
 12 13  1  0
 12 14  1  0
 12 15  1  0
 15 16  1  0
 15 17  1  0
 15 18  1  0
 18 19  1  0
 18 20  1  0
 18 21  1  0
 21 22  1  0
 21 23  1  0
 21 24  1  0
 24 25  1  0
 24 26  1  0
 24 27  1  0
 27 28  1  0
 27 29  1  0
 27 30  1  0
 30 31  1  0
 30 32  1  0
 30 33  1  0
 33 34  1  0
 33 35  1  0
 33 36  1  0
M  CHG  2   2   1   4  -1
M  END
$$$$

     RDKit          2D

 14 13  0  0  0  0  0  0  0  0999 V2000
   -3.8971    2.2500    0.0000 F   0  0  0  0  0  0  0  0  0  0  0  0
   -2.5981    1.5000    0.0000 C   0  0  0  0  0  0  0  0  0  0  0  0
   -1.8481    2.7990    0.0000 F   0  0  0  0  0  0  0  0  0  0  0  0
   -3.3481    0.2010    0.0000 Br  0  0  0  0  0  0  0  0  0  0  0  0
   -1.2990    0.7500    0.0000 C   0  0  0  0  0  0  0  0  0  0  0  0
   -2.0490   -0.5490    0.0000 F   0  0  0  0  0  0  0  0  0  0  0  0
   -0.5490    2.0490    0.0000 F   0  0  0  0  0  0  0  0  0  0  0  0
    0.0000    0.0000    0.0000 C   0  0  0  0  0  0  0  0  0  0  0  0
    1.2990    0.7500    0.0000 C   0  0  0  0  0  0  0  0  0  0  0  0
    2.5981   -0.0000    0.0000 C   0  0  0  0  0  0  0  0  0  0  0  0
    3.8971    0.7500    0.0000 C   0  0  0  0  0  0  0  0  0  0  0  0
    5.1962   -0.0000    0.0000 C   0  0  0  0  0  0  0  0  0  0  0  0
    6.4952    0.7500    0.0000 C   0  0  0  0  0  0  0  0  0  0  0  0
    7.7942   -0.0000    0.0000 Br  0  0  0  0  0  0  0  0  0  0  0  0
  1  2  1  0
  2  3  1  0
  2  4  1  0
  2  5  1  0
  5  6  1  0
  5  7  1  0
  5  8  1  0
  8  9  1  0
  9 10  1  0
 10 11  1  0
 11 12  1  0
 12 13  1  0
 13 14  1  0
M  END
$$$$

     RDKit          2D

 19 18  0  0  0  0  0  0  0  0999 V2000
   -2.5981    1.5000    0.0000 F   0  0  0  0  0  0  0  0  0  0  0  0
   -1.2990    0.7500    0.0000 C   0  0  0  0  0  0  0  0  0  0  0  0
   -2.0490   -0.5490    0.0000 F   0  0  0  0  0  0  0  0  0  0  0  0
   -0.5490    2.0490    0.0000 F   0  0  0  0  0  0  0  0  0  0  0  0
    0.0000    0.0000    0.0000 C   0  0  0  0  0  0  0  0  0  0  0  0
    1.2990    0.7500    0.0000 C   0  0  0  0  0  0  0  0  0  0  0  0
    2.5981   -0.0000    0.0000 C   0  0  0  0  0  0  0  0  0  0  0  0
    3.3481    1.2990    0.0000 F   0  0  0  0  0  0  0  0  0  0  0  0
    1.8481   -1.2990    0.0000 F   0  0  0  0  0  0  0  0  0  0  0  0
    3.8971   -0.7500    0.0000 C   0  0  0  0  0  0  0  0  0  0  0  0
    3.1471   -2.0490    0.0000 F   0  0  0  0  0  0  0  0  0  0  0  0
    4.2432    0.0653    0.0000 F   0  0  0  0  0  0  0  0  0  0  0  0
    5.1962   -1.5000    0.0000 C   0  0  0  0  0  0  0  0  0  0  0  0
    6.4952   -2.2500    0.0000 F   0  0  0  0  0  0  0  0  0  0  0  0
    4.4462   -2.7990    0.0000 F   0  0  0  0  0  0  0  0  0  0  0  0
    5.9462   -0.2010    0.0000 Si  0  0  0  0  0  4  0  0  0  0  0  0
    6.6962    1.0981    0.0000 Cl  0  0  0  0  0  0  0  0  0  0  0  0
    5.3095    0.2788    0.0000 Cl  0  0  0  0  0  0  0  0  0  0  0  0
    7.2452   -0.9510    0.0000 Cl  0  0  0  0  0  0  0  0  0  0  0  0
  1  2  1  0
  2  3  1  0
  2  4  1  0
  2  5  1  0
  5  6  1  0
  6  7  1  0
  7  8  1  0
  7  9  1  0
  7 10  1  0
 10 11  1  0
 10 12  1  0
 10 13  1  0
 13 14  1  0
 13 15  1  0
 13 16  1  0
 16 17  1  0
 16 18  1  0
 16 19  1  0
M  END
$$$$

     RDKit          2D

 34 34  0  0  0  0  0  0  0  0999 V2000
    7.5000   -2.5981    0.0000 O   0  0  0  0  0  0  0  0  0  0  0  0
    6.0000   -2.5981    0.0000 C   0  0  0  0  0  0  0  0  0  0  0  0
    5.2500   -1.2990    0.0000 N   0  0  0  0  0  0  0  0  0  0  0  0
    3.7500   -1.2990    0.0000 C   0  0  0  0  0  0  0  0  0  0  0  0
    3.0000    0.0000    0.0000 C   0  0  0  0  0  0  0  0  0  0  0  0
    3.7500    1.2990    0.0000 O   0  0  0  0  0  0  0  0  0  0  0  0
    1.5000    0.0000    0.0000 C   0  0  0  0  0  0  0  0  0  0  0  0
    0.7500   -1.2990    0.0000 C   0  0  0  0  0  0  0  0  0  0  0  0
   -0.7500   -1.2990    0.0000 C   0  0  0  0  0  0  0  0  0  0  0  0
   -1.5000    0.0000    0.0000 C   0  0  0  0  0  0  0  0  0  0  0  0
   -0.7500    1.2990    0.0000 C   0  0  0  0  0  0  0  0  0  0  0  0
    0.7500    1.2990    0.0000 C   0  0  0  0  0  0  0  0  0  0  0  0
    6.0000    0.0000    0.0000 C   0  0  0  0  0  0  0  0  0  0  0  0
    5.2500    1.2990    0.0000 O   0  0  0  0  0  0  0  0  0  0  0  0
    7.5000    0.0000    0.0000 C   0  0  0  0  0  0  0  0  0  0  0  0
    7.5000    1.5000    0.0000 F   0  0  0  0  0  0  0  0  0  0  0  0
    7.5000   -1.5000    0.0000 F   0  0  0  0  0  0  0  0  0  0  0  0
    9.0000    0.0000    0.0000 C   0  0  0  0  0  0  0  0  0  0  0  0
    9.0000    1.5000    0.0000 F   0  0  0  0  0  0  0  0  0  0  0  0
    9.0000   -1.5000    0.0000 F   0  0  0  0  0  0  0  0  0  0  0  0
   10.5000    0.0000    0.0000 C   0  0  0  0  0  0  0  0  0  0  0  0
   12.0000    0.0000    0.0000 F   0  0  0  0  0  0  0  0  0  0  0  0
   10.5000    1.5000    0.0000 F   0  0  0  0  0  0  0  0  0  0  0  0
   10.5000   -1.5000    0.0000 F   0  0  0  0  0  0  0  0  0  0  0  0
    5.2500   -3.8971    0.0000 C   0  0  0  0  0  0  0  0  0  0  0  0
    3.9510   -3.1471    0.0000 F   0  0  0  0  0  0  0  0  0  0  0  0
    6.5490   -4.6471    0.0000 F   0  0  0  0  0  0  0  0  0  0  0  0
    4.5000   -5.1962    0.0000 C   0  0  0  0  0  0  0  0  0  0  0  0
    3.2010   -4.4462    0.0000 F   0  0  0  0  0  0  0  0  0  0  0  0
    5.7990   -5.9462    0.0000 F   0  0  0  0  0  0  0  0  0  0  0  0
    3.7500   -6.4952    0.0000 C   0  0  0  0  0  0  0  0  0  0  0  0
    3.0000   -7.7942    0.0000 F   0  0  0  0  0  0  0  0  0  0  0  0
    2.4510   -5.7452    0.0000 F   0  0  0  0  0  0  0  0  0  0  0  0
    5.0490   -7.2452    0.0000 F   0  0  0  0  0  0  0  0  0  0  0  0
  1  2  2  0
  2  3  1  0
  3  4  1  0
  4  5  1  0
  5  6  1  0
  5  7  1  0
  7  8  2  0
  8  9  1  0
  9 10  2  0
 10 11  1  0
 11 12  2  0
  3 13  1  0
 13 14  2  0
 13 15  1  0
 15 16  1  0
 15 17  1  0
 15 18  1  0
 18 19  1  0
 18 20  1  0
 18 21  1  0
 21 22  1  0
 21 23  1  0
 21 24  1  0
  2 25  1  0
 25 26  1  0
 25 27  1  0
 25 28  1  0
 28 29  1  0
 28 30  1  0
 28 31  1  0
 31 32  1  0
 31 33  1  0
 31 34  1  0
 12  7  1  0
M  END
$$$$

     RDKit          2D

 11 10  0  0  0  0  0  0  0  0999 V2000
    2.5981    3.0000    0.0000 F   0  0  0  0  0  0  0  0  0  0  0  0
    2.5981    1.5000    0.0000 N   0  0  0  0  0  0  0  0  0  0  0  0
    1.2990    0.7500    0.0000 C   0  0  0  0  0  0  0  0  0  0  0  0
    2.0490   -0.5490    0.0000 F   0  0  0  0  0  0  0  0  0  0  0  0
    0.5490    2.0490    0.0000 F   0  0  0  0  0  0  0  0  0  0  0  0
    0.0000    0.0000    0.0000 C   0  0  0  0  0  0  0  0  0  0  0  0
   -0.0000   -1.5000    0.0000 F   0  0  0  0  0  0  0  0  0  0  0  0
   -1.2990    0.7500    0.0000 C   0  0  0  0  0  0  0  0  0  0  0  0
   -2.5981    1.5000    0.0000 F   0  0  0  0  0  0  0  0  0  0  0  0
   -2.0490   -0.5490    0.0000 F   0  0  0  0  0  0  0  0  0  0  0  0
   -0.5490    2.0490    0.0000 F   0  0  0  0  0  0  0  0  0  0  0  0
  1  2  1  0
  2  3  1  0
  3  4  1  0
  3  5  1  0
  3  6  1  0
  6  7  1  0
  6  8  1  0
  8  9  1  0
  8 10  1  0
  8 11  1  0
M  END
$$$$

     RDKit          2D

 56 55  0  0  0  0  0  0  0  0999 V2000
    0.0000    0.0000    0.0000 C   0  0  0  0  0  0  0  0  0  0  0  0
    1.2990    0.7500    0.0000 C   0  0  0  0  0  0  0  0  0  0  0  0
    2.5981   -0.0000    0.0000 C   0  0  0  0  0  0  0  0  0  0  0  0
    2.5981   -1.5000    0.0000 O   0  0  0  0  0  0  0  0  0  0  0  0
    3.8971    0.7500    0.0000 O   0  0  0  0  0  0  0  0  0  0  0  0
    5.1962   -0.0000    0.0000 C   0  0  0  0  0  0  0  0  0  0  0  0
    6.4952    0.7500    0.0000 C   0  0  0  0  0  0  0  0  0  0  0  0
    7.7942   -0.0000    0.0000 C   0  0  0  0  0  0  0  0  0  0  0  0
    8.5442    1.2990    0.0000 F   0  0  0  0  0  0  0  0  0  0  0  0
    7.0442   -1.2990    0.0000 F   0  0  0  0  0  0  0  0  0  0  0  0
    9.0933   -0.7500    0.0000 C   0  0  0  0  0  0  0  0  0  0  0  0
    8.3433   -2.0490    0.0000 F   0  0  0  0  0  0  0  0  0  0  0  0
    9.8433    0.5490    0.0000 F   0  0  0  0  0  0  0  0  0  0  0  0
   10.3923   -1.5000    0.0000 C   0  0  0  0  0  0  0  0  0  0  0  0
   11.1423   -0.2010    0.0000 F   0  0  0  0  0  0  0  0  0  0  0  0
    9.6423   -2.7990    0.0000 F   0  0  0  0  0  0  0  0  0  0  0  0
   11.6913   -2.2500    0.0000 C   0  0  0  0  0  0  0  0  0  0  0  0
   10.9413   -3.5490    0.0000 F   0  0  0  0  0  0  0  0  0  0  0  0
   12.4413   -0.9510    0.0000 F   0  0  0  0  0  0  0  0  0  0  0  0
   12.9904   -3.0000    0.0000 C   0  0  0  0  0  0  0  0  0  0  0  0
   13.7404   -1.7010    0.0000 F   0  0  0  0  0  0  0  0  0  0  0  0
   12.2404   -4.2990    0.0000 F   0  0  0  0  0  0  0  0  0  0  0  0
   14.2894   -3.7500    0.0000 C   0  0  0  0  0  0  0  0  0  0  0  0
   13.5394   -5.0490    0.0000 F   0  0  0  0  0  0  0  0  0  0  0  0
   15.0394   -2.4510    0.0000 F   0  0  0  0  0  0  0  0  0  0  0  0
   15.5885   -4.5000    0.0000 C   0  0  0  0  0  0  0  0  0  0  0  0
   16.3385   -3.2010    0.0000 F   0  0  0  0  0  0  0  0  0  0  0  0
   14.8385   -5.7990    0.0000 F   0  0  0  0  0  0  0  0  0  0  0  0
   16.8875   -5.2500    0.0000 C   0  0  0  0  0  0  0  0  0  0  0  0
   16.1375   -6.5490    0.0000 F   0  0  0  0  0  0  0  0  0  0  0  0
   17.6375   -3.9510    0.0000 F   0  0  0  0  0  0  0  0  0  0  0  0
   18.1865   -6.0000    0.0000 C   0  0  0  0  0  0  0  0  0  0  0  0
   18.9365   -4.7010    0.0000 F   0  0  0  0  0  0  0  0  0  0  0  0
   17.4365   -7.2990    0.0000 F   0  0  0  0  0  0  0  0  0  0  0  0
   19.4856   -6.7500    0.0000 C   0  0  0  0  0  0  0  0  0  0  0  0
   18.7356   -8.0490    0.0000 F   0  0  0  0  0  0  0  0  0  0  0  0
   20.2356   -5.4510    0.0000 F   0  0  0  0  0  0  0  0  0  0  0  0
   20.7846   -7.5000    0.0000 C   0  0  0  0  0  0  0  0  0  0  0  0
   21.5346   -6.2010    0.0000 F   0  0  0  0  0  0  0  0  0  0  0  0
   20.0346   -8.7990    0.0000 F   0  0  0  0  0  0  0  0  0  0  0  0
   22.0836   -8.2500    0.0000 C   0  0  0  0  0  0  0  0  0  0  0  0
   21.3336   -9.5490    0.0000 F   0  0  0  0  0  0  0  0  0  0  0  0
   22.8336   -6.9510    0.0000 F   0  0  0  0  0  0  0  0  0  0  0  0
   23.3827   -9.0000    0.0000 C   0  0  0  0  0  0  0  0  0  0  0  0
   24.1327   -7.7010    0.0000 F   0  0  0  0  0  0  0  0  0  0  0  0
   22.6327  -10.2990    0.0000 F   0  0  0  0  0  0  0  0  0  0  0  0
   24.6817   -9.7500    0.0000 C   0  0  0  0  0  0  0  0  0  0  0  0
   23.9317  -11.0490    0.0000 F   0  0  0  0  0  0  0  0  0  0  0  0
   25.4317   -8.4510    0.0000 F   0  0  0  0  0  0  0  0  0  0  0  0
   25.9808  -10.5000    0.0000 C   0  0  0  0  0  0  0  0  0  0  0  0
   26.7308   -9.2010    0.0000 F   0  0  0  0  0  0  0  0  0  0  0  0
   25.2308  -11.7990    0.0000 F   0  0  0  0  0  0  0  0  0  0  0  0
   27.2798  -11.2500    0.0000 C   0  0  0  0  0  0  0  0  0  0  0  0
   28.5788  -12.0000    0.0000 F   0  0  0  0  0  0  0  0  0  0  0  0
   26.5298  -12.5490    0.0000 F   0  0  0  0  0  0  0  0  0  0  0  0
   28.0298   -9.9510    0.0000 F   0  0  0  0  0  0  0  0  0  0  0  0
  1  2  2  0
  2  3  1  0
  3  4  2  0
  3  5  1  0
  5  6  1  0
  6  7  1  0
  7  8  1  0
  8  9  1  0
  8 10  1  0
  8 11  1  0
 11 12  1  0
 11 13  1  0
 11 14  1  0
 14 15  1  0
 14 16  1  0
 14 17  1  0
 17 18  1  0
 17 19  1  0
 17 20  1  0
 20 21  1  0
 20 22  1  0
 20 23  1  0
 23 24  1  0
 23 25  1  0
 23 26  1  0
 26 27  1  0
 26 28  1  0
 26 29  1  0
 29 30  1  0
 29 31  1  0
 29 32  1  0
 32 33  1  0
 32 34  1  0
 32 35  1  0
 35 36  1  0
 35 37  1  0
 35 38  1  0
 38 39  1  0
 38 40  1  0
 38 41  1  0
 41 42  1  0
 41 43  1  0
 41 44  1  0
 44 45  1  0
 44 46  1  0
 44 47  1  0
 47 48  1  0
 47 49  1  0
 47 50  1  0
 50 51  1  0
 50 52  1  0
 50 53  1  0
 53 54  1  0
 53 55  1  0
 53 56  1  0
M  END
$$$$

     RDKit          2D

 25 22  0  0  0  0  0  0  0  0999 V2000
    2.7760    0.0000    0.0000 C   0  0  0  0  0  0  0  0  0  0  0  0
    1.2760    0.0000    0.0000 C   0  0  0  0  0  0  0  0  0  0  0  0
    0.3943    1.2135    0.0000 C   0  0  0  0  0  0  0  0  0  0  0  0
    0.8578    2.6401    0.0000 C   0  0  0  0  0  0  0  0  0  0  0  0
   -1.0323    0.7500    0.0000 C   0  0  0  0  0  0  0  0  0  0  0  0
   -2.2458    1.6317    0.0000 C   0  0  0  0  0  0  0  0  0  0  0  0
   -1.0323   -0.7500    0.0000 C   0  0  0  0  0  0  0  0  0  0  0  0
   -2.2458   -1.6317    0.0000 C   0  0  0  0  0  0  0  0  0  0  0  0
    0.3943   -1.2135    0.0000 C   0  0  0  0  0  0  0  0  0  0  0  0
    0.8578   -2.6401    0.0000 C   0  0  0  0  0  0  0  0  0  0  0  0
    3.7760    0.0000    0.0000 C   0  0  0  0  0  0  0  0  0  0  0  0
    5.0750    0.7500    0.0000 P   0  0  0  0  0  0  0  0  0  0  0  0
    6.3741   -0.0000    0.0000 C   0  0  0  0  0  0  0  0  0  0  0  0
    5.0750    2.2500    0.0000 C   0  0  0  0  0  0  0  0  0  0  0  0
   -1.2990    5.8901    0.0000 F   0  0  0  0  0  0  0  0  0  0  0  0
    0.0000    5.1401    0.0000 C   0  0  0  0  0  0  0  0  0  0  0  0
   -0.0000    3.6401    0.0000 F   0  0  0  0  0  0  0  0  0  0  0  0
    1.2990    5.8901    0.0000 C   0  0  0  0  0  0  0  0  0  0  0  0
    2.0490    4.5911    0.0000 F   0  0  0  0  0  0  0  0  0  0  0  0
    0.5490    7.1891    0.0000 F   0  0  0  0  0  0  0  0  0  0  0  0
    2.5981    6.6401    0.0000 C   0  0  0  0  0  0  0  0  0  0  0  0
    3.8971    7.3901    0.0000 F   0  0  0  0  0  0  0  0  0  0  0  0
    1.8481    7.9391    0.0000 F   0  0  0  0  0  0  0  0  0  0  0  0
    3.3481    5.3411    0.0000 F   0  0  0  0  0  0  0  0  0  0  0  0
    7.3741    0.0000    0.0000 Rh  0  0  0  0  0 15  0  0  0  0  0  0
  1  2  1  0
  2  3  1  0
  3  4  1  0
  3  5  1  0
  5  6  1  0
  5  7  1  0
  7  8  1  0
  7  9  1  0
  9 10  1  0
 11 12  1  0
 12 13  1  0
 12 14  1  0
 15 16  1  0
 16 17  1  0
 16 18  1  0
 18 19  1  0
 18 20  1  0
 18 21  1  0
 21 22  1  0
 21 23  1  0
 21 24  1  0
  9  2  1  0
M  CHG  2  12   1  25   3
M  END
$$$$

     RDKit          2D

 13 12  0  0  0  0  0  0  0  0999 V2000
    0.0000    0.0000    0.0000 C   0  0  0  0  0  0  0  0  0  0  0  0
    1.2990    0.7500    0.0000 C   0  0  0  0  0  0  0  0  0  0  0  0
    2.5981   -0.0000    0.0000 C   0  0  0  0  0  0  0  0  0  0  0  0
    3.8971    0.7500    0.0000 C   0  0  0  0  0  0  0  0  0  0  0  0
    3.1471    2.0490    0.0000 O   0  0  0  0  0  0  0  0  0  0  0  0
    5.1962    1.5000    0.0000 C   0  0  0  0  0  0  0  0  0  0  0  0
    6.4952    2.2500    0.0000 F   0  0  0  0  0  0  0  0  0  0  0  0
    4.4462    2.7990    0.0000 F   0  0  0  0  0  0  0  0  0  0  0  0
    5.7292    0.7926    0.0000 F   0  0  0  0  0  0  0  0  0  0  0  0
    4.6471   -0.5490    0.0000 C   0  0  0  0  0  0  0  0  0  0  0  0
    5.3971   -1.8481    0.0000 F   0  0  0  0  0  0  0  0  0  0  0  0
    3.3481   -1.2990    0.0000 F   0  0  0  0  0  0  0  0  0  0  0  0
    5.4624   -0.2030    0.0000 F   0  0  0  0  0  0  0  0  0  0  0  0
  1  2  1  0
  2  3  2  3
  3  4  1  0
  4  5  1  0
  4  6  1  0
  6  7  1  0
  6  8  1  0
  6  9  1  0
  4 10  1  0
 10 11  1  0
 10 12  1  0
 10 13  1  0
M  END
$$$$

     RDKit          2D

 36 36  0  0  0  0  0  0  0  0999 V2000
    3.7500    1.2990    0.0000 O   0  0  0  0  0  0  0  0  0  0  0  0
    3.0000    0.0000    0.0000 C   0  0  0  0  0  0  0  0  0  0  0  0
    3.7500   -1.2990    0.0000 O   0  0  0  0  0  0  0  0  0  0  0  0
    1.5000    0.0000    0.0000 C   0  0  0  0  0  0  0  0  0  0  0  0
    0.7500   -1.2990    0.0000 C   0  0  0  0  0  0  0  0  0  0  0  0
   -0.7500   -1.2990    0.0000 C   0  0  0  0  0  0  0  0  0  0  0  0
   -1.5000    0.0000    0.0000 C   0  0  0  0  0  0  0  0  0  0  0  0
   -0.7500    1.2990    0.0000 C   0  0  0  0  0  0  0  0  0  0  0  0
    0.7500    1.2990    0.0000 C   0  0  0  0  0  0  0  0  0  0  0  0
    1.5000    2.5981    0.0000 O   0  0  0  0  0  0  0  0  0  0  0  0
    0.7500    3.8971    0.0000 C   0  0  0  0  0  0  0  0  0  0  0  0
   -0.7500    3.8971    0.0000 F   0  0  0  0  0  0  0  0  0  0  0  0
    1.5000    5.1962    0.0000 C   0  0  0  0  0  0  0  0  0  0  0  0
    3.0000    5.1962    0.0000 F   0  0  0  0  0  0  0  0  0  0  0  0
    0.7500    6.4952    0.0000 C   0  0  0  0  0  0  0  0  0  0  0  0
    2.0490    7.2452    0.0000 F   0  0  0  0  0  0  0  0  0  0  0  0
   -0.5490    5.7452    0.0000 F   0  0  0  0  0  0  0  0  0  0  0  0
    0.0000    7.7942    0.0000 C   0  0  0  0  0  0  0  0  0  0  0  0
   -1.2990    7.0442    0.0000 F   0  0  0  0  0  0  0  0  0  0  0  0
    1.2990    8.5442    0.0000 F   0  0  0  0  0  0  0  0  0  0  0  0
   -0.7500    9.0933    0.0000 C   0  0  0  0  0  0  0  0  0  0  0  0
    0.5490    9.8433    0.0000 F   0  0  0  0  0  0  0  0  0  0  0  0
   -2.0490    8.3433    0.0000 F   0  0  0  0  0  0  0  0  0  0  0  0
   -1.5000   10.3923    0.0000 C   0  0  0  0  0  0  0  0  0  0  0  0
   -2.7990    9.6423    0.0000 F   0  0  0  0  0  0  0  0  0  0  0  0
   -0.2010   11.1423    0.0000 F   0  0  0  0  0  0  0  0  0  0  0  0
   -2.2500   11.6913    0.0000 C   0  0  0  0  0  0  0  0  0  0  0  0
   -0.9510   12.4413    0.0000 F   0  0  0  0  0  0  0  0  0  0  0  0
   -3.5490   10.9413    0.0000 F   0  0  0  0  0  0  0  0  0  0  0  0
   -3.0000   12.9904    0.0000 C   0  0  0  0  0  0  0  0  0  0  0  0
   -4.2990   12.2404    0.0000 F   0  0  0  0  0  0  0  0  0  0  0  0
   -1.7010   13.7404    0.0000 F   0  0  0  0  0  0  0  0  0  0  0  0
   -3.7500   14.2894    0.0000 C   0  0  0  0  0  0  0  0  0  0  0  0
   -4.5000   15.5885    0.0000 F   0  0  0  0  0  0  0  0  0  0  0  0
   -2.4510   15.0394    0.0000 F   0  0  0  0  0  0  0  0  0  0  0  0
   -5.0490   13.5394    0.0000 F   0  0  0  0  0  0  0  0  0  0  0  0
  1  2  2  0
  2  3  1  0
  2  4  1  0
  4  5  2  0
  5  6  1  0
  6  7  2  0
  7  8  1  0
  8  9  2  0
  9 10  1  0
 10 11  1  0
 11 12  1  0
 11 13  2  3
 13 14  1  0
 13 15  1  0
 15 16  1  0
 15 17  1  0
 15 18  1  0
 18 19  1  0
 18 20  1  0
 18 21  1  0
 21 22  1  0
 21 23  1  0
 21 24  1  0
 24 25  1  0
 24 26  1  0
 24 27  1  0
 27 28  1  0
 27 29  1  0
 27 30  1  0
 30 31  1  0
 30 32  1  0
 30 33  1  0
 33 34  1  0
 33 35  1  0
 33 36  1  0
  9  4  1  0
M  END
$$$$

     RDKit          2D

 11 10  0  0  0  0  0  0  0  0999 V2000
   -0.0000   -1.5000    0.0000 N   0  0  0  0  0  0  0  0  0  0  0  0
    0.0000    0.0000    0.0000 C   0  0  0  0  0  0  0  0  0  0  0  0
    0.0000    1.5000    0.0000 C   0  0  0  0  0  0  0  0  0  0  0  0
   -1.5000    1.5000    0.0000 F   0  0  0  0  0  0  0  0  0  0  0  0
   -0.0000    3.0000    0.0000 C   0  0  0  0  0  0  0  0  0  0  0  0
   -1.2990    3.7500    0.0000 O   0  0  0  0  0  0  0  0  0  0  0  0
    1.1979    3.9028    0.0000 F   0  0  0  0  0  0  0  0  0  0  0  0
    1.5000    1.5000    0.0000 C   0  0  0  0  0  0  0  0  0  0  0  0
    3.0000    1.5000    0.0000 F   0  0  0  0  0  0  0  0  0  0  0  0
    1.6828    2.9888    0.0000 F   0  0  0  0  0  0  0  0  0  0  0  0
    1.5000    0.0000    0.0000 F   0  0  0  0  0  0  0  0  0  0  0  0
  1  2  3  0
  2  3  1  0
  3  4  1  0
  3  5  1  0
  5  6  2  0
  5  7  1  0
  3  8  1  0
  8  9  1  0
  8 10  1  0
  8 11  1  0
M  END
$$$$

     RDKit          2D

 41 42  0  0  0  0  0  0  0  0999 V2000
    6.0000   -2.5981    0.0000 C   0  0  0  0  0  0  0  0  0  0  0  0
    5.2500   -1.2990    0.0000 C   0  0  0  0  0  0  0  0  0  0  0  0
    3.7500   -1.2990    0.0000 O   0  0  0  0  0  0  0  0  0  0  0  0
    3.0000    0.0000    0.0000 C   0  0  0  0  0  0  0  0  0  0  0  0
    3.7500    1.2990    0.0000 O   0  0  0  0  0  0  0  0  0  0  0  0
    1.5000    0.0000    0.0000 C   0  0  0  0  0  0  0  0  0  0  0  0
    0.7500   -1.2990    0.0000 C   0  0  0  0  0  0  0  0  0  0  0  0
   -0.7500   -1.2990    0.0000 C   0  0  0  0  0  0  0  0  0  0  0  0
   -1.5000    0.0000    0.0000 C   0  0  0  0  0  0  0  0  0  0  0  0
   -3.0000    0.0000    0.0000 C   0  0  0  0  0  0  0  0  0  0  0  0
   -4.5000    0.0000    0.0000 C   0  0  0  0  0  0  0  0  0  0  0  0
   -5.2500    1.2990    0.0000 C   0  0  0  0  0  0  0  0  0  0  0  0
   -6.7500    1.2990    0.0000 C   0  0  0  0  0  0  0  0  0  0  0  0
   -7.5000    0.0000    0.0000 C   0  0  0  0  0  0  0  0  0  0  0  0
   -9.0000    0.0000    0.0000 C   0  0  0  0  0  0  0  0  0  0  0  0
   -9.7500   -1.2990    0.0000 O   0  0  0  0  0  0  0  0  0  0  0  0
   -9.7500    1.2990    0.0000 O   0  0  0  0  0  0  0  0  0  0  0  0
  -11.2500    1.2990    0.0000 C   0  0  0  0  0  0  0  0  0  0  0  0
  -12.0000    2.5981    0.0000 C   0  0  0  0  0  0  0  0  0  0  0  0
   -6.7500   -1.2990    0.0000 C   0  0  0  0  0  0  0  0  0  0  0  0
   -7.5000   -2.5981    0.0000 C   0  0  0  0  0  0  0  0  0  0  0  0
   -9.0000   -2.5981    0.0000 O   0  0  0  0  0  0  0  0  0  0  0  0
   -6.7500   -3.8971    0.0000 O   0  0  0  0  0  0  0  0  0  0  0  0
   -7.5000   -5.1962    0.0000 C   0  0  0  0  0  0  0  0  0  0  0  0
   -6.7500   -6.4952    0.0000 C   0  0  0  0  0  0  0  0  0  0  0  0
   -5.2500   -1.2990    0.0000 C   0  0  0  0  0  0  0  0  0  0  0  0
   -3.0000    1.5000    0.0000 C   0  0  0  0  0  0  0  0  0  0  0  0
   -3.0000    3.0000    0.0000 F   0  0  0  0  0  0  0  0  0  0  0  0
   -1.5446    1.8630    0.0000 F   0  0  0  0  0  0  0  0  0  0  0  0
   -4.4554    1.8630    0.0000 F   0  0  0  0  0  0  0  0  0  0  0  0
   -3.0000   -1.5000    0.0000 C   0  0  0  0  0  0  0  0  0  0  0  0
   -3.0000   -3.0000    0.0000 F   0  0  0  0  0  0  0  0  0  0  0  0
   -4.4554   -1.8630    0.0000 F   0  0  0  0  0  0  0  0  0  0  0  0
   -1.5446   -1.8630    0.0000 F   0  0  0  0  0  0  0  0  0  0  0  0
   -0.7500    1.2990    0.0000 C   0  0  0  0  0  0  0  0  0  0  0  0
    0.7500    1.2990    0.0000 C   0  0  0  0  0  0  0  0  0  0  0  0
    1.5000    2.5981    0.0000 C   0  0  0  0  0  0  0  0  0  0  0  0
    3.0000    2.5981    0.0000 O   0  0  0  0  0  0  0  0  0  0  0  0
    0.7500    3.8971    0.0000 O   0  0  0  0  0  0  0  0  0  0  0  0
    1.5000    5.1962    0.0000 C   0  0  0  0  0  0  0  0  0  0  0  0
    0.7500    6.4952    0.0000 C   0  0  0  0  0  0  0  0  0  0  0  0
  1  2  1  0
  2  3  1  0
  3  4  1  0
  4  5  2  0
  4  6  1  0
  6  7  2  0
  7  8  1  0
  8  9  2  0
  9 10  1  0
 10 11  1  0
 11 12  2  0
 12 13  1  0
 13 14  2  0
 14 15  1  0
 15 16  2  0
 15 17  1  0
 17 18  1  0
 18 19  1  0
 14 20  1  0
 20 21  1  0
 21 22  2  0
 21 23  1  0
 23 24  1  0
 24 25  1  0
 20 26  2  0
 10 27  1  0
 27 28  1  0
 27 29  1  0
 27 30  1  0
 10 31  1  0
 31 32  1  0
 31 33  1  0
 31 34  1  0
  9 35  1  0
 35 36  2  0
 36 37  1  0
 37 38  2  0
 37 39  1  0
 39 40  1  0
 40 41  1  0
 36  6  1  0
 26 11  1  0
M  END
$$$$

     RDKit          2D

 36 34  0  0  0  0  0  0  0  0999 V2000
   -1.5000   -1.5000    0.0000 O   0  0  0  0  0  0  0  0  0  0  0  0
    0.0000   -1.5000    0.0000 S   0  0  0  0  0  0  0  0  0  0  0  0
    0.7912   -1.5972    0.0000 O   0  0  0  0  0  0  0  0  0  0  0  0
   -0.0000   -3.0000    0.0000 O   0  0  0  0  0  0  0  0  0  0  0  0
    0.0000    0.0000    0.0000 C   0  0  0  0  0  0  0  0  0  0  0  0
   -1.5000    0.0000    0.0000 F   0  0  0  0  0  0  0  0  0  0  0  0
    0.0000    1.5000    0.0000 F   0  0  0  0  0  0  0  0  0  0  0  0
    1.5000    0.0000    0.0000 C   0  0  0  0  0  0  0  0  0  0  0  0
    1.5000    1.5000    0.0000 F   0  0  0  0  0  0  0  0  0  0  0  0
    1.6080   -0.8791    0.0000 F   0  0  0  0  0  0  0  0  0  0  0  0
    3.0000    0.0000    0.0000 C   0  0  0  0  0  0  0  0  0  0  0  0
    3.0000   -1.5000    0.0000 F   0  0  0  0  0  0  0  0  0  0  0  0
    3.0000    1.5000    0.0000 F   0  0  0  0  0  0  0  0  0  0  0  0
    4.5000    0.0000    0.0000 C   0  0  0  0  0  0  0  0  0  0  0  0
    4.5000    1.5000    0.0000 F   0  0  0  0  0  0  0  0  0  0  0  0
    4.5000   -1.5000    0.0000 F   0  0  0  0  0  0  0  0  0  0  0  0
    6.0000    0.0000    0.0000 C   0  0  0  0  0  0  0  0  0  0  0  0
    6.0000   -1.5000    0.0000 F   0  0  0  0  0  0  0  0  0  0  0  0
    6.0000    1.5000    0.0000 F   0  0  0  0  0  0  0  0  0  0  0  0
    7.5000    0.0000    0.0000 C   0  0  0  0  0  0  0  0  0  0  0  0
    7.5000   -1.5000    0.0000 F   0  0  0  0  0  0  0  0  0  0  0  0
    7.5000    1.5000    0.0000 F   0  0  0  0  0  0  0  0  0  0  0  0
    9.0000    0.0000    0.0000 C   0  0  0  0  0  0  0  0  0  0  0  0
    9.0000    1.5000    0.0000 F   0  0  0  0  0  0  0  0  0  0  0  0
    9.0000   -1.5000    0.0000 F   0  0  0  0  0  0  0  0  0  0  0  0
   10.5000    0.0000    0.0000 C   0  0  0  0  0  0  0  0  0  0  0  0
   10.5000   -1.5000    0.0000 F   0  0  0  0  0  0  0  0  0  0  0  0
   10.5000    1.5000    0.0000 F   0  0  0  0  0  0  0  0  0  0  0  0
   12.0000    0.0000    0.0000 C   0  0  0  0  0  0  0  0  0  0  0  0
   12.0000    1.5000    0.0000 F   0  0  0  0  0  0  0  0  0  0  0  0
   12.0000   -1.5000    0.0000 F   0  0  0  0  0  0  0  0  0  0  0  0
   13.5000    0.0000    0.0000 C   0  0  0  0  0  0  0  0  0  0  0  0
   15.0000    0.0000    0.0000 F   0  0  0  0  0  0  0  0  0  0  0  0
   13.5000   -1.5000    0.0000 F   0  0  0  0  0  0  0  0  0  0  0  0
   13.5000    1.5000    0.0000 F   0  0  0  0  0  0  0  0  0  0  0  0
    0.0000    2.5000    0.0000 N   0  0  0  0  0  0  0  0  0  0  0  0
  1  2  2  0
  2  3  2  0
  2  4  1  0
  2  5  1  0
  5  6  1  0
  5  7  1  0
  5  8  1  0
  8  9  1  0
  8 10  1  0
  8 11  1  0
 11 12  1  0
 11 13  1  0
 11 14  1  0
 14 15  1  0
 14 16  1  0
 14 17  1  0
 17 18  1  0
 17 19  1  0
 17 20  1  0
 20 21  1  0
 20 22  1  0
 20 23  1  0
 23 24  1  0
 23 25  1  0
 23 26  1  0
 26 27  1  0
 26 28  1  0
 26 29  1  0
 29 30  1  0
 29 31  1  0
 29 32  1  0
 32 33  1  0
 32 34  1  0
 32 35  1  0
M  CHG  2   4  -1  36   1
M  END
$$$$

     RDKit          2D

 36 34  0  0  0  0  0  0  0  0999 V2000
    7.7942   -0.0000    0.0000 C   0  0  0  0  0  0  0  0  0  0  0  0
    6.4952    0.7500    0.0000 N   0  0  0  0  0  0  0  0  0  0  0  0
    5.1962    0.0000    0.0000 C   0  0  0  0  0  0  0  0  0  0  0  0
    6.4952    2.2500    0.0000 C   0  0  0  0  0  0  0  0  0  0  0  0
    5.1962    3.0000    0.0000 C   0  0  0  0  0  0  0  0  0  0  0  0
    5.1962    4.5000    0.0000 C   0  0  0  0  0  0  0  0  0  0  0  0
    3.8971    5.2500    0.0000 N   0  0  0  0  0  0  0  0  0  0  0  0
    3.8971    6.7500    0.0000 S   0  0  0  0  0  0  0  0  0  0  0  0
    5.3971    6.7500    0.0000 O   0  0  0  0  0  0  0  0  0  0  0  0
    3.1059    6.6528    0.0000 O   0  0  0  0  0  0  0  0  0  0  0  0
    3.8971    8.2500    0.0000 C   0  0  0  0  0  0  0  0  0  0  0  0
    5.3971    8.2500    0.0000 F   0  0  0  0  0  0  0  0  0  0  0  0
    3.8971    9.7500    0.0000 F   0  0  0  0  0  0  0  0  0  0  0  0
    2.3971    8.2500    0.0000 C   0  0  0  0  0  0  0  0  0  0  0  0
    2.2891    7.3709    0.0000 F   0  0  0  0  0  0  0  0  0  0  0  0
    2.3971    9.7500    0.0000 F   0  0  0  0  0  0  0  0  0  0  0  0
    0.8971    8.2500    0.0000 C   0  0  0  0  0  0  0  0  0  0  0  0
    0.8971    6.7500    0.0000 F   0  0  0  0  0  0  0  0  0  0  0  0
    0.8971    9.7500    0.0000 F   0  0  0  0  0  0  0  0  0  0  0  0
   -0.6029    8.2500    0.0000 C   0  0  0  0  0  0  0  0  0  0  0  0
   -0.6029    9.7500    0.0000 F   0  0  0  0  0  0  0  0  0  0  0  0
   -0.6029    6.7500    0.0000 F   0  0  0  0  0  0  0  0  0  0  0  0
   -2.1029    8.2500    0.0000 C   0  0  0  0  0  0  0  0  0  0  0  0
   -2.1029    9.7500    0.0000 F   0  0  0  0  0  0  0  0  0  0  0  0
   -2.1029    6.7500    0.0000 F   0  0  0  0  0  0  0  0  0  0  0  0
   -3.6029    8.2500    0.0000 C   0  0  0  0  0  0  0  0  0  0  0  0
   -3.6029    6.7500    0.0000 F   0  0  0  0  0  0  0  0  0  0  0  0
   -3.6029    9.7500    0.0000 F   0  0  0  0  0  0  0  0  0  0  0  0
   -5.1029    8.2500    0.0000 C   0  0  0  0  0  0  0  0  0  0  0  0
   -5.1029    9.7500    0.0000 F   0  0  0  0  0  0  0  0  0  0  0  0
   -5.1029    6.7500    0.0000 F   0  0  0  0  0  0  0  0  0  0  0  0
   -6.6029    8.2500    0.0000 C   0  0  0  0  0  0  0  0  0  0  0  0
   -8.1029    8.2500    0.0000 F   0  0  0  0  0  0  0  0  0  0  0  0
   -6.6029    6.7500    0.0000 F   0  0  0  0  0  0  0  0  0  0  0  0
   -6.6029    9.7500    0.0000 F   0  0  0  0  0  0  0  0  0  0  0  0
    0.0000   10.7500    0.0000 Cl  0  0  0  0  0  0  0  0  0  0  0  0
  1  2  1  0
  2  3  1  0
  2  4  1  0
  4  5  1  0
  5  6  1  0
  6  7  1  0
  7  8  1  0
  8  9  2  0
  8 10  2  0
  8 11  1  0
 11 12  1  0
 11 13  1  0
 11 14  1  0
 14 15  1  0
 14 16  1  0
 14 17  1  0
 17 18  1  0
 17 19  1  0
 17 20  1  0
 20 21  1  0
 20 22  1  0
 20 23  1  0
 23 24  1  0
 23 25  1  0
 23 26  1  0
 26 27  1  0
 26 28  1  0
 26 29  1  0
 29 30  1  0
 29 31  1  0
 29 32  1  0
 32 33  1  0
 32 34  1  0
 32 35  1  0
M  END
$$$$

     RDKit          2D

 20 20  0  0  0  0  0  0  0  0999 V2000
    3.0000    0.0000    0.0000 C   0  0  0  0  0  0  0  0  0  0  0  0
    1.5000    0.0000    0.0000 C   0  0  0  0  0  0  0  0  0  0  0  0
    0.7500   -1.2990    0.0000 C   0  0  0  0  0  0  0  0  0  0  0  0
   -0.7500   -1.2990    0.0000 C   0  0  0  0  0  0  0  0  0  0  0  0
   -1.5000    0.0000    0.0000 C   0  0  0  0  0  0  0  0  0  0  0  0
   -0.7500    1.2990    0.0000 C   0  0  0  0  0  0  0  0  0  0  0  0
    0.7500    1.2990    0.0000 C   0  0  0  0  0  0  0  0  0  0  0  0
    1.5000    2.5981    0.0000 C   0  0  0  0  0  0  0  0  0  0  0  0
    0.2010    3.3481    0.0000 F   0  0  0  0  0  0  0  0  0  0  0  0
    2.7990    1.8481    0.0000 F   0  0  0  0  0  0  0  0  0  0  0  0
    2.2500    3.8971    0.0000 C   0  0  0  0  0  0  0  0  0  0  0  0
    3.5490    3.1471    0.0000 F   0  0  0  0  0  0  0  0  0  0  0  0
    0.9510    4.6471    0.0000 F   0  0  0  0  0  0  0  0  0  0  0  0
    3.0000    5.1962    0.0000 C   0  0  0  0  0  0  0  0  0  0  0  0
    1.7010    5.9462    0.0000 F   0  0  0  0  0  0  0  0  0  0  0  0
    4.2990    4.4462    0.0000 F   0  0  0  0  0  0  0  0  0  0  0  0
    3.7500    6.4952    0.0000 C   0  0  0  0  0  0  0  0  0  0  0  0
    4.5000    7.7942    0.0000 F   0  0  0  0  0  0  0  0  0  0  0  0
    5.0490    5.7452    0.0000 F   0  0  0  0  0  0  0  0  0  0  0  0
    2.4510    7.2452    0.0000 F   0  0  0  0  0  0  0  0  0  0  0  0
  1  2  1  0
  2  3  2  0
  3  4  1  0
  4  5  2  0
  5  6  1  0
  6  7  2  0
  7  8  1  0
  8  9  1  0
  8 10  1  0
  8 11  1  0
 11 12  1  0
 11 13  1  0
 11 14  1  0
 14 15  1  0
 14 16  1  0
 14 17  1  0
 17 18  1  0
 17 19  1  0
 17 20  1  0
  7  2  1  0
M  END
$$$$

     RDKit          2D

 29 28  0  0  0  0  0  0  0  0999 V2000
    0.0000    0.0000    0.0000 C   0  0  0  0  0  0  0  0  0  0  0  0
    1.2990    0.7500    0.0000 C   0  0  0  0  0  0  0  0  0  0  0  0
    2.5981   -0.0000    0.0000 N   0  0  0  0  0  0  0  0  0  0  0  0
    3.8971    0.7500    0.0000 C   0  0  0  0  0  0  0  0  0  0  0  0
    5.1962   -0.0000    0.0000 C   0  0  0  0  0  0  0  0  0  0  0  0
    6.4952    0.7500    0.0000 O   0  0  0  0  0  0  0  0  0  0  0  0
    7.7942   -0.0000    0.0000 P   0  0  0  0  0  0  0  0  0  0  0  0
    8.5442    1.2990    0.0000 O   0  0  0  0  0  0  0  0  0  0  0  0
    7.0442   -1.2990    0.0000 O   0  0  0  0  0  0  0  0  0  0  0  0
    9.0933   -0.7500    0.0000 O   0  0  0  0  0  0  0  0  0  0  0  0
    2.5981   -1.5000    0.0000 S   0  0  0  0  0  0  0  0  0  0  0  0
    1.8069   -1.4028    0.0000 O   0  0  0  0  0  0  0  0  0  0  0  0
    4.0981   -1.5000    0.0000 O   0  0  0  0  0  0  0  0  0  0  0  0
    2.5981   -3.0000    0.0000 C   0  0  0  0  0  0  0  0  0  0  0  0
    4.0981   -3.0000    0.0000 F   0  0  0  0  0  0  0  0  0  0  0  0
    2.5981   -4.5000    0.0000 F   0  0  0  0  0  0  0  0  0  0  0  0
    1.0981   -3.0000    0.0000 C   0  0  0  0  0  0  0  0  0  0  0  0
    0.9901   -2.1209    0.0000 F   0  0  0  0  0  0  0  0  0  0  0  0
    1.0981   -4.5000    0.0000 F   0  0  0  0  0  0  0  0  0  0  0  0
   -0.4019   -3.0000    0.0000 C   0  0  0  0  0  0  0  0  0  0  0  0
   -0.4019   -1.5000    0.0000 F   0  0  0  0  0  0  0  0  0  0  0  0
   -0.4019   -4.5000    0.0000 F   0  0  0  0  0  0  0  0  0  0  0  0
   -1.9019   -3.0000    0.0000 C   0  0  0  0  0  0  0  0  0  0  0  0
   -1.9019   -1.5000    0.0000 F   0  0  0  0  0  0  0  0  0  0  0  0
   -1.9019   -4.5000    0.0000 F   0  0  0  0  0  0  0  0  0  0  0  0
   -3.4019   -3.0000    0.0000 C   0  0  0  0  0  0  0  0  0  0  0  0
   -4.9019   -3.0000    0.0000 F   0  0  0  0  0  0  0  0  0  0  0  0
   -3.4019   -4.5000    0.0000 F   0  0  0  0  0  0  0  0  0  0  0  0
   -3.4019   -1.5000    0.0000 F   0  0  0  0  0  0  0  0  0  0  0  0
  1  2  1  0
  2  3  1  0
  3  4  1  0
  4  5  1  0
  5  6  1  0
  6  7  1  0
  7  8  2  0
  7  9  1  0
  7 10  1  0
  3 11  1  0
 11 12  2  0
 11 13  2  0
 11 14  1  0
 14 15  1  0
 14 16  1  0
 14 17  1  0
 17 18  1  0
 17 19  1  0
 17 20  1  0
 20 21  1  0
 20 22  1  0
 20 23  1  0
 23 24  1  0
 23 25  1  0
 23 26  1  0
 26 27  1  0
 26 28  1  0
 26 29  1  0
M  END
$$$$

     RDKit          2D

 59 58  0  0  0  0  0  0  0  0999 V2000
    0.0000    0.0000    0.0000 C   0  0  0  0  0  0  0  0  0  0  0  0
    1.2990    0.7500    0.0000 C   0  0  0  0  0  0  0  0  0  0  0  0
    2.5981   -0.0000    0.0000 N   0  0  0  0  0  0  0  0  0  0  0  0
    3.8971    0.7500    0.0000 C   0  0  0  0  0  0  0  0  0  0  0  0
    5.1962   -0.0000    0.0000 C   0  0  0  0  0  0  0  0  0  0  0  0
    6.4952    0.7500    0.0000 O   0  0  0  0  0  0  0  0  0  0  0  0
    7.7942   -0.0000    0.0000 P   0  0  0  0  0  0  0  0  0  0  0  0
    7.0442   -1.2990    0.0000 O   0  0  0  0  0  0  0  0  0  0  0  0
    8.5442    1.2990    0.0000 O   0  0  0  0  0  0  0  0  0  0  0  0
    9.0933   -0.7500    0.0000 O   0  0  0  0  0  0  0  0  0  0  0  0
    9.0933   -2.2500    0.0000 C   0  0  0  0  0  0  0  0  0  0  0  0
   10.3923   -3.0000    0.0000 C   0  0  0  0  0  0  0  0  0  0  0  0
   10.3923   -4.5000    0.0000 N   0  0  0  0  0  0  0  0  0  0  0  0
   11.6913   -5.2500    0.0000 C   0  0  0  0  0  0  0  0  0  0  0  0
   11.6913   -6.7500    0.0000 C   0  0  0  0  0  0  0  0  0  0  0  0
    9.0933   -5.2500    0.0000 S   0  0  0  0  0  0  0  0  0  0  0  0
    8.3433   -3.9510    0.0000 O   0  0  0  0  0  0  0  0  0  0  0  0
    9.5730   -5.8866    0.0000 O   0  0  0  0  0  0  0  0  0  0  0  0
    7.7942   -6.0000    0.0000 C   0  0  0  0  0  0  0  0  0  0  0  0
    7.0442   -4.7010    0.0000 F   0  0  0  0  0  0  0  0  0  0  0  0
    6.4952   -6.7500    0.0000 F   0  0  0  0  0  0  0  0  0  0  0  0
    8.5442   -7.2990    0.0000 C   0  0  0  0  0  0  0  0  0  0  0  0
    9.3596   -6.9530    0.0000 F   0  0  0  0  0  0  0  0  0  0  0  0
    7.2452   -8.0490    0.0000 F   0  0  0  0  0  0  0  0  0  0  0  0
    9.2942   -8.5981    0.0000 C   0  0  0  0  0  0  0  0  0  0  0  0
   10.5933   -7.8481    0.0000 F   0  0  0  0  0  0  0  0  0  0  0  0
    7.9952   -9.3481    0.0000 F   0  0  0  0  0  0  0  0  0  0  0  0
   10.0442   -9.8971    0.0000 C   0  0  0  0  0  0  0  0  0  0  0  0
   11.3433   -9.1471    0.0000 F   0  0  0  0  0  0  0  0  0  0  0  0
    8.7452  -10.6471    0.0000 F   0  0  0  0  0  0  0  0  0  0  0  0
   10.7942  -11.1962    0.0000 C   0  0  0  0  0  0  0  0  0  0  0  0
   12.0933  -10.4462    0.0000 F   0  0  0  0  0  0  0  0  0  0  0  0
    9.4952  -11.9462    0.0000 F   0  0  0  0  0  0  0  0  0  0  0  0
   11.5442  -12.4952    0.0000 C   0  0  0  0  0  0  0  0  0  0  0  0
   12.2942  -13.7942    0.0000 F   0  0  0  0  0  0  0  0  0  0  0  0
   12.8433  -11.7452    0.0000 F   0  0  0  0  0  0  0  0  0  0  0  0
   10.2452  -13.2452    0.0000 F   0  0  0  0  0  0  0  0  0  0  0  0
    2.5981   -1.5000    0.0000 S   0  0  0  0  0  0  0  0  0  0  0  0
    1.1093   -1.3172    0.0000 O   0  0  0  0  0  0  0  0  0  0  0  0
    4.0981   -1.5000    0.0000 O   0  0  0  0  0  0  0  0  0  0  0  0
    2.5981   -3.0000    0.0000 C   0  0  0  0  0  0  0  0  0  0  0  0
    4.0981   -3.0000    0.0000 F   0  0  0  0  0  0  0  0  0  0  0  0
    2.5981   -4.5000    0.0000 F   0  0  0  0  0  0  0  0  0  0  0  0
    1.0981   -3.0000    0.0000 C   0  0  0  0  0  0  0  0  0  0  0  0
    0.9152   -1.5112    0.0000 F   0  0  0  0  0  0  0  0  0  0  0  0
    1.0981   -4.5000    0.0000 F   0  0  0  0  0  0  0  0  0  0  0  0
   -0.4019   -3.0000    0.0000 C   0  0  0  0  0  0  0  0  0  0  0  0
   -0.4019   -1.5000    0.0000 F   0  0  0  0  0  0  0  0  0  0  0  0
   -0.4019   -4.5000    0.0000 F   0  0  0  0  0  0  0  0  0  0  0  0
   -1.9019   -3.0000    0.0000 C   0  0  0  0  0  0  0  0  0  0  0  0
   -1.9019   -1.5000    0.0000 F   0  0  0  0  0  0  0  0  0  0  0  0
   -1.9019   -4.5000    0.0000 F   0  0  0  0  0  0  0  0  0  0  0  0
   -3.4019   -3.0000    0.0000 C   0  0  0  0  0  0  0  0  0  0  0  0
   -3.4019   -4.5000    0.0000 F   0  0  0  0  0  0  0  0  0  0  0  0
   -3.4019   -1.5000    0.0000 F   0  0  0  0  0  0  0  0  0  0  0  0
   -4.9019   -3.0000    0.0000 C   0  0  0  0  0  0  0  0  0  0  0  0
   -6.4019   -3.0000    0.0000 F   0  0  0  0  0  0  0  0  0  0  0  0
   -4.9019   -1.5000    0.0000 F   0  0  0  0  0  0  0  0  0  0  0  0
   -4.9019   -4.5000    0.0000 F   0  0  0  0  0  0  0  0  0  0  0  0
  1  2  1  0
  2  3  1  0
  3  4  1  0
  4  5  1  0
  5  6  1  0
  6  7  1  0
  7  8  2  0
  7  9  1  0
  7 10  1  0
 10 11  1  0
 11 12  1  0
 12 13  1  0
 13 14  1  0
 14 15  1  0
 13 16  1  0
 16 17  2  0
 16 18  2  0
 16 19  1  0
 19 20  1  0
 19 21  1  0
 19 22  1  0
 22 23  1  0
 22 24  1  0
 22 25  1  0
 25 26  1  0
 25 27  1  0
 25 28  1  0
 28 29  1  0
 28 30  1  0
 28 31  1  0
 31 32  1  0
 31 33  1  0
 31 34  1  0
 34 35  1  0
 34 36  1  0
 34 37  1  0
  3 38  1  0
 38 39  2  0
 38 40  2  0
 38 41  1  0
 41 42  1  0
 41 43  1  0
 41 44  1  0
 44 45  1  0
 44 46  1  0
 44 47  1  0
 47 48  1  0
 47 49  1  0
 47 50  1  0
 50 51  1  0
 50 52  1  0
 50 53  1  0
 53 54  1  0
 53 55  1  0
 53 56  1  0
 56 57  1  0
 56 58  1  0
 56 59  1  0
M  END
$$$$

     RDKit          2D

 35 34  0  0  0  0  0  0  0  0999 V2000
    7.7942   13.5000    0.0000 C   0  0  0  0  0  0  0  0  0  0  0  0
    7.7942   12.0000    0.0000 C   0  0  0  0  0  0  0  0  0  0  0  0
    9.0933   11.2500    0.0000 C   0  0  0  0  0  0  0  0  0  0  0  0
    6.4952   11.2500    0.0000 C   0  0  0  0  0  0  0  0  0  0  0  0
    5.1962   12.0000    0.0000 O   0  0  0  0  0  0  0  0  0  0  0  0
    6.4952    9.7500    0.0000 O   0  0  0  0  0  0  0  0  0  0  0  0
    5.1962    9.0000    0.0000 C   0  0  0  0  0  0  0  0  0  0  0  0
    5.1962    7.5000    0.0000 C   0  0  0  0  0  0  0  0  0  0  0  0
    3.8971    6.7500    0.0000 N   0  0  0  0  0  0  0  0  0  0  0  0
    3.8971    5.2500    0.0000 C   0  0  0  0  0  0  0  0  0  0  0  0
    2.5981    7.5000    0.0000 S   0  0  0  0  0  0  0  0  0  0  0  0
    3.3481    8.7990    0.0000 O   0  0  0  0  0  0  0  0  0  0  0  0
    2.2866    6.7662    0.0000 O   0  0  0  0  0  0  0  0  0  0  0  0
    1.2990    8.2500    0.0000 C   0  0  0  0  0  0  0  0  0  0  0  0
    2.0490    9.5490    0.0000 F   0  0  0  0  0  0  0  0  0  0  0  0
   -0.0000    9.0000    0.0000 F   0  0  0  0  0  0  0  0  0  0  0  0
    0.5490    6.9510    0.0000 C   0  0  0  0  0  0  0  0  0  0  0  0
    1.2564    6.4179    0.0000 F   0  0  0  0  0  0  0  0  0  0  0  0
   -0.7500    7.7010    0.0000 F   0  0  0  0  0  0  0  0  0  0  0  0
   -0.2010    5.6519    0.0000 C   0  0  0  0  0  0  0  0  0  0  0  0
    1.0981    4.9019    0.0000 F   0  0  0  0  0  0  0  0  0  0  0  0
   -1.5000    6.4019    0.0000 F   0  0  0  0  0  0  0  0  0  0  0  0
   -0.9510    4.3529    0.0000 C   0  0  0  0  0  0  0  0  0  0  0  0
    0.3481    3.6029    0.0000 F   0  0  0  0  0  0  0  0  0  0  0  0
   -2.2500    5.1029    0.0000 F   0  0  0  0  0  0  0  0  0  0  0  0
   -1.7010    3.0538    0.0000 C   0  0  0  0  0  0  0  0  0  0  0  0
   -3.0000    3.8038    0.0000 F   0  0  0  0  0  0  0  0  0  0  0  0
   -0.4019    2.3038    0.0000 F   0  0  0  0  0  0  0  0  0  0  0  0
   -2.4510    1.7548    0.0000 C   0  0  0  0  0  0  0  0  0  0  0  0
   -3.7500    2.5048    0.0000 F   0  0  0  0  0  0  0  0  0  0  0  0
   -1.1519    1.0048    0.0000 F   0  0  0  0  0  0  0  0  0  0  0  0
   -3.2010    0.4558    0.0000 C   0  0  0  0  0  0  0  0  0  0  0  0
   -3.9510   -0.8433    0.0000 F   0  0  0  0  0  0  0  0  0  0  0  0
   -4.5000    1.2058    0.0000 F   0  0  0  0  0  0  0  0  0  0  0  0
   -1.9019   -0.2942    0.0000 F   0  0  0  0  0  0  0  0  0  0  0  0
  1  2  2  0
  2  3  1  0
  2  4  1  0
  4  5  2  0
  4  6  1  0
  6  7  1  0
  7  8  1  0
  8  9  1  0
  9 10  1  0
  9 11  1  0
 11 12  2  0
 11 13  2  0
 11 14  1  0
 14 15  1  0
 14 16  1  0
 14 17  1  0
 17 18  1  0
 17 19  1  0
 17 20  1  0
 20 21  1  0
 20 22  1  0
 20 23  1  0
 23 24  1  0
 23 25  1  0
 23 26  1  0
 26 27  1  0
 26 28  1  0
 26 29  1  0
 29 30  1  0
 29 31  1  0
 29 32  1  0
 32 33  1  0
 32 34  1  0
 32 35  1  0
M  END
$$$$

     RDKit          2D

 22 21  0  0  0  0  0  0  0  0999 V2000
   -5.1962    3.0000    0.0000 F   0  0  0  0  0  0  0  0  0  0  0  0
   -3.8971    2.2500    0.0000 C   0  0  0  0  0  0  0  0  0  0  0  0
   -4.6471    0.9510    0.0000 F   0  0  0  0  0  0  0  0  0  0  0  0
   -3.1471    3.5490    0.0000 F   0  0  0  0  0  0  0  0  0  0  0  0
   -2.5981    1.5000    0.0000 C   0  0  0  0  0  0  0  0  0  0  0  0
   -1.8481    2.7990    0.0000 F   0  0  0  0  0  0  0  0  0  0  0  0
   -3.3481    0.2010    0.0000 F   0  0  0  0  0  0  0  0  0  0  0  0
   -1.2990    0.7500    0.0000 C   0  0  0  0  0  0  0  0  0  0  0  0
   -2.0490   -0.5490    0.0000 F   0  0  0  0  0  0  0  0  0  0  0  0
   -0.5490    2.0490    0.0000 F   0  0  0  0  0  0  0  0  0  0  0  0
    0.0000    0.0000    0.0000 C   0  0  0  0  0  0  0  0  0  0  0  0
    1.2990    0.7500    0.0000 C   0  0  0  0  0  0  0  0  0  0  0  0
    2.5981   -0.0000    0.0000 C   0  0  0  0  0  0  0  0  0  0  0  0
    3.3481    1.2990    0.0000 F   0  0  0  0  0  0  0  0  0  0  0  0
    1.8481   -1.2990    0.0000 F   0  0  0  0  0  0  0  0  0  0  0  0
    3.8971   -0.7500    0.0000 C   0  0  0  0  0  0  0  0  0  0  0  0
    3.1471   -2.0490    0.0000 F   0  0  0  0  0  0  0  0  0  0  0  0
    4.6471    0.5490    0.0000 F   0  0  0  0  0  0  0  0  0  0  0  0
    5.1962   -1.5000    0.0000 C   0  0  0  0  0  0  0  0  0  0  0  0
    6.4952   -2.2500    0.0000 F   0  0  0  0  0  0  0  0  0  0  0  0
    5.9462   -0.2010    0.0000 F   0  0  0  0  0  0  0  0  0  0  0  0
    4.4462   -2.7990    0.0000 F   0  0  0  0  0  0  0  0  0  0  0  0
  1  2  1  0
  2  3  1  0
  2  4  1  0
  2  5  1  0
  5  6  1  0
  5  7  1  0
  5  8  1  0
  8  9  1  0
  8 10  1  0
  8 11  1  0
 11 12  2  3
 12 13  1  0
 13 14  1  0
 13 15  1  0
 13 16  1  0
 16 17  1  0
 16 18  1  0
 16 19  1  0
 19 20  1  0
 19 21  1  0
 19 22  1  0
M  END
$$$$

     RDKit          2D

 12 11  0  0  0  0  0  0  0  0999 V2000
   -1.2990   -3.7500    0.0000 O   0  0  0  0  0  0  0  0  0  0  0  0
   -1.2990   -2.2500    0.0000 N   0  0  0  0  0  0  0  0  0  0  0  0
   -0.0000   -1.5000    0.0000 O   0  0  0  0  0  0  0  0  0  0  0  0
    0.0000    0.0000    0.0000 C   0  0  0  0  0  0  0  0  0  0  0  0
   -1.2990    0.7500    0.0000 O   0  0  0  0  0  0  0  0  0  0  0  0
    1.2990    0.7500    0.0000 C   0  0  0  0  0  0  0  0  0  0  0  0
    2.0490   -0.5490    0.0000 F   0  0  0  0  0  0  0  0  0  0  0  0
    0.5490    2.0490    0.0000 F   0  0  0  0  0  0  0  0  0  0  0  0
    2.5981    1.5000    0.0000 C   0  0  0  0  0  0  0  0  0  0  0  0
    3.8971    2.2500    0.0000 F   0  0  0  0  0  0  0  0  0  0  0  0
    1.8481    2.7990    0.0000 F   0  0  0  0  0  0  0  0  0  0  0  0
    3.3481    0.2010    0.0000 F   0  0  0  0  0  0  0  0  0  0  0  0
  1  2  2  0
  2  3  1  0
  3  4  1  0
  4  5  2  0
  4  6  1  0
  6  7  1  0
  6  8  1  0
  6  9  1  0
  9 10  1  0
  9 11  1  0
  9 12  1  0
M  END
$$$$

     RDKit          2D

 24 23  0  0  0  0  0  0  0  0999 V2000
   -0.0000   -1.5000    0.0000 F   0  0  0  0  0  0  0  0  0  0  0  0
    0.0000    0.0000    0.0000 C   0  0  0  0  0  0  0  0  0  0  0  0
    1.2990    0.7500    0.0000 C   0  0  0  0  0  0  0  0  0  0  0  0
    1.2990    2.2500    0.0000 F   0  0  0  0  0  0  0  0  0  0  0  0
    2.5981   -0.0000    0.0000 C   0  0  0  0  0  0  0  0  0  0  0  0
    3.3481    1.2990    0.0000 F   0  0  0  0  0  0  0  0  0  0  0  0
    1.8481   -1.2990    0.0000 F   0  0  0  0  0  0  0  0  0  0  0  0
    3.8971   -0.7500    0.0000 C   0  0  0  0  0  0  0  0  0  0  0  0
    3.1471   -2.0490    0.0000 F   0  0  0  0  0  0  0  0  0  0  0  0
    4.6471    0.5490    0.0000 F   0  0  0  0  0  0  0  0  0  0  0  0
    5.1962   -1.5000    0.0000 C   0  0  0  0  0  0  0  0  0  0  0  0
    5.9462   -0.2010    0.0000 F   0  0  0  0  0  0  0  0  0  0  0  0
    4.4462   -2.7990    0.0000 F   0  0  0  0  0  0  0  0  0  0  0  0
    6.4952   -2.2500    0.0000 C   0  0  0  0  0  0  0  0  0  0  0  0
    7.7942   -3.0000    0.0000 F   0  0  0  0  0  0  0  0  0  0  0  0
    5.7452   -3.5490    0.0000 F   0  0  0  0  0  0  0  0  0  0  0  0
    7.2452   -0.9510    0.0000 F   0  0  0  0  0  0  0  0  0  0  0  0
   -1.2990    0.7500    0.0000 C   0  0  0  0  0  0  0  0  0  0  0  0
   -2.0490   -0.5490    0.0000 F   0  0  0  0  0  0  0  0  0  0  0  0
   -0.5490    2.0490    0.0000 F   0  0  0  0  0  0  0  0  0  0  0  0
   -2.5981    1.5000    0.0000 C   0  0  0  0  0  0  0  0  0  0  0  0
   -3.8971    2.2500    0.0000 F   0  0  0  0  0  0  0  0  0  0  0  0
   -1.8481    2.7990    0.0000 F   0  0  0  0  0  0  0  0  0  0  0  0
   -3.3481    0.2010    0.0000 F   0  0  0  0  0  0  0  0  0  0  0  0
  1  2  1  0
  2  3  2  3
  3  4  1  0
  3  5  1  0
  5  6  1  0
  5  7  1  0
  5  8  1  0
  8  9  1  0
  8 10  1  0
  8 11  1  0
 11 12  1  0
 11 13  1  0
 11 14  1  0
 14 15  1  0
 14 16  1  0
 14 17  1  0
  2 18  1  0
 18 19  1  0
 18 20  1  0
 18 21  1  0
 21 22  1  0
 21 23  1  0
 21 24  1  0
M  END
$$$$

     RDKit          2D

 18 17  0  0  0  0  0  0  0  0999 V2000
    2.5981    1.5000    0.0000 C   0  0  0  0  0  0  0  0  0  0  0  0
    1.2990    0.7500    0.0000 N   0  0  0  0  0  0  0  0  0  0  0  0
    0.0000   -0.0000    0.0000 C   0  0  0  0  0  0  0  0  0  0  0  0
   -1.2990    0.7500    0.0000 C   0  0  0  0  0  0  0  0  0  0  0  0
   -2.5981   -0.0000    0.0000 O   0  0  0  0  0  0  0  0  0  0  0  0
    2.0490   -0.5490    0.0000 C   0  0  0  0  0  0  0  0  0  0  0  0
    1.2990   -1.8481    0.0000 C   0  0  0  0  0  0  0  0  0  0  0  0
    2.0490   -3.1471    0.0000 O   0  0  0  0  0  0  0  0  0  0  0  0
    0.5490    2.0490    0.0000 C   0  0  0  0  0  0  0  0  0  0  0  0
    1.2990    3.3481    0.0000 C   0  0  0  0  0  0  0  0  0  0  0  0
    2.7990    3.3481    0.0000 O   0  0  0  0  0  0  0  0  0  0  0  0
    0.5490    4.6471    0.0000 C   0  0  0  0  0  0  0  0  0  0  0  0
    1.8481    5.3971    0.0000 F   0  0  0  0  0  0  0  0  0  0  0  0
   -0.7500    3.8971    0.0000 F   0  0  0  0  0  0  0  0  0  0  0  0
   -0.2010    5.9462    0.0000 C   0  0  0  0  0  0  0  0  0  0  0  0
   -0.9510    7.2452    0.0000 F   0  0  0  0  0  0  0  0  0  0  0  0
   -1.5000    5.1962    0.0000 F   0  0  0  0  0  0  0  0  0  0  0  0
    1.0981    6.6962    0.0000 F   0  0  0  0  0  0  0  0  0  0  0  0
  1  2  1  0
  2  3  1  0
  3  4  1  0
  4  5  1  0
  2  6  1  0
  6  7  1  0
  7  8  1  0
  2  9  1  0
  9 10  1  0
 10 11  1  0
 10 12  1  0
 12 13  1  0
 12 14  1  0
 12 15  1  0
 15 16  1  0
 15 17  1  0
 15 18  1  0
M  CHG  1   2   1
M  END
$$$$

     RDKit          2D

 22 20  0  0  0  0  0  0  0  0999 V2000
    0.0000    0.0000    0.0000 R   0  0  0  0  0  0  0  0  0  0  0  0
    1.2990    0.7500    0.0000 S   0  0  0  0  0  0  0  0  0  0  0  0
    2.5981   -0.0000    0.0000 C   0  0  0  0  0  0  0  0  0  0  0  0
    3.8971    0.7500    0.0000 C   0  0  0  0  0  0  0  0  0  0  0  0
    5.1962   -0.0000    0.0000 C   0  0  0  0  0  0  0  0  0  0  0  0
    6.4952   -0.7500    0.0000 F   0  0  0  0  0  0  0  0  0  0  0  0
    5.9462    1.2990    0.0000 F   0  0  0  0  0  0  0  0  0  0  0  0
    4.4462   -1.2990    0.0000 F   0  0  0  0  0  0  0  0  0  0  0  0
    0.0000    2.2990    0.0000 C   0  0  0  0  0  0  0  0  0  0  0  0
    1.2990    3.0490    0.0000 N   0  0  0  0  0  0  0  0  0  0  0  0
    2.5981    2.2990    0.0000 C   0  0  0  0  0  0  0  0  0  0  0  0
    1.2990    4.5490    0.0000 C   0  0  0  0  0  0  0  0  0  0  0  0
    2.5981    5.2990    0.0000 C   0  0  0  0  0  0  0  0  0  0  0  0
    2.5981    6.7990    0.0000 C   0  0  0  0  0  0  0  0  0  0  0  0
    3.8971    7.5490    0.0000 N   0  0  0  0  0  0  0  0  0  0  0  0
    3.8971    9.0490    0.0000 C   0  0  0  0  0  0  0  0  0  0  0  0
    2.5981    9.7990    0.0000 O   0  0  0  0  0  0  0  0  0  0  0  0
    5.1962    9.7990    0.0000 C   0  0  0  0  0  0  0  0  0  0  0  0
    5.1962   11.2990    0.0000 C   0  0  0  0  0  0  0  0  0  0  0  0
    6.4952   12.0490    0.0000 C   0  0  0  0  0  0  0  0  0  0  0  0
    7.7942   11.2990    0.0000 O   0  0  0  0  0  0  0  0  0  0  0  0
    6.4952   13.5490    0.0000 O   0  0  0  0  0  0  0  0  0  0  0  0
  1  2  1  0
  2  3  1  0
  3  4  1  0
  4  5  1  0
  5  6  1  0
  5  7  1  0
  5  8  1  0
  9 10  1  0
 10 11  1  0
 10 12  1  0
 12 13  1  0
 13 14  1  0
 14 15  1  0
 15 16  1  0
 16 17  2  0
 16 18  1  0
 18 19  1  0
 19 20  1  0
 20 21  2  0
 20 22  1  0
M  END
$$$$

     RDKit          2D

 25 24  0  0  0  0  0  0  0  0999 V2000
    0.0000    0.0000    0.0000 C   0  0  0  0  0  0  0  0  0  0  0  0
    1.2990    0.7500    0.0000 C   0  0  0  0  0  0  0  0  0  0  0  0
    2.5981   -0.0000    0.0000 C   0  0  0  0  0  0  0  0  0  0  0  0
    2.5981   -1.5000    0.0000 O   0  0  0  0  0  0  0  0  0  0  0  0
    3.8971    0.7500    0.0000 N   0  0  0  0  0  0  0  0  0  0  0  0
    5.1962   -0.0000    0.0000 C   0  0  0  0  0  0  0  0  0  0  0  0
    5.9462    1.2990    0.0000 C   0  0  0  0  0  0  0  0  0  0  0  0
    4.4462   -1.2990    0.0000 C   0  0  0  0  0  0  0  0  0  0  0  0
    6.4952   -0.7500    0.0000 C   0  0  0  0  0  0  0  0  0  0  0  0
    6.4952   -2.2500    0.0000 O   0  0  0  0  0  0  0  0  0  0  0  0
    7.7942   -0.0000    0.0000 O   0  0  0  0  0  0  0  0  0  0  0  0
    9.0933   -0.7500    0.0000 C   0  0  0  0  0  0  0  0  0  0  0  0
    8.3433   -2.0490    0.0000 F   0  0  0  0  0  0  0  0  0  0  0  0
    9.8433    0.5490    0.0000 F   0  0  0  0  0  0  0  0  0  0  0  0
   10.3923   -1.5000    0.0000 C   0  0  0  0  0  0  0  0  0  0  0  0
    9.6423   -2.7990    0.0000 F   0  0  0  0  0  0  0  0  0  0  0  0
   11.1423   -0.2010    0.0000 F   0  0  0  0  0  0  0  0  0  0  0  0
   11.6913   -2.2500    0.0000 C   0  0  0  0  0  0  0  0  0  0  0  0
   12.4413   -0.9510    0.0000 F   0  0  0  0  0  0  0  0  0  0  0  0
   10.9413   -3.5490    0.0000 F   0  0  0  0  0  0  0  0  0  0  0  0
   12.9904   -3.0000    0.0000 O   0  0  0  0  0  0  0  0  0  0  0  0
   12.9904   -4.5000    0.0000 C   0  0  0  0  0  0  0  0  0  0  0  0
   12.9904   -6.0000    0.0000 F   0  0  0  0  0  0  0  0  0  0  0  0
   14.4904   -4.5000    0.0000 F   0  0  0  0  0  0  0  0  0  0  0  0
   11.4904   -4.5000    0.0000 F   0  0  0  0  0  0  0  0  0  0  0  0
  1  2  2  0
  2  3  1  0
  3  4  2  0
  3  5  1  0
  5  6  1  0
  6  7  1  0
  6  8  1  0
  6  9  1  0
  9 10  2  0
  9 11  1  0
 11 12  1  0
 12 13  1  0
 12 14  1  0
 12 15  1  0
 15 16  1  0
 15 17  1  0
 15 18  1  0
 18 19  1  0
 18 20  1  0
 18 21  1  0
 21 22  1  0
 22 23  1  0
 22 24  1  0
 22 25  1  0
M  END
$$$$

     RDKit          2D

 35 34  0  0  0  0  0  0  0  0999 V2000
   -0.0000   -0.0000    0.0000 C   0  0  0  0  0  0  0  0  0  0  0  0
    1.2990    0.7500    0.0000 C   0  0  0  0  0  0  0  0  0  0  0  0
    2.5981   -0.0000    0.0000 C   0  0  0  0  0  0  0  0  0  0  0  0
    3.8971    0.7500    0.0000 N   0  0  0  0  0  0  0  0  0  0  0  0
    5.1962    0.0000    0.0000 C   0  0  0  0  0  0  0  0  0  0  0  0
    6.4952    0.7500    0.0000 C   0  0  0  0  0  0  0  0  0  0  0  0
    7.7942   -0.0000    0.0000 O   0  0  0  0  0  0  0  0  0  0  0  0
    9.0933    0.7500    0.0000 C   0  0  0  0  0  0  0  0  0  0  0  0
   10.3923   -0.0000    0.0000 C   0  0  0  0  0  0  0  0  0  0  0  0
   11.6913    0.7500    0.0000 O   0  0  0  0  0  0  0  0  0  0  0  0
    3.8971    2.2500    0.0000 S   0  0  0  0  0  0  0  0  0  0  0  0
    3.1059    2.1528    0.0000 O   0  0  0  0  0  0  0  0  0  0  0  0
    5.3971    2.2500    0.0000 O   0  0  0  0  0  0  0  0  0  0  0  0
    3.8971    3.7500    0.0000 C   0  0  0  0  0  0  0  0  0  0  0  0
    5.3971    3.7500    0.0000 F   0  0  0  0  0  0  0  0  0  0  0  0
    3.8971    5.2500    0.0000 F   0  0  0  0  0  0  0  0  0  0  0  0
    2.3971    3.7500    0.0000 C   0  0  0  0  0  0  0  0  0  0  0  0
    2.2891    2.8709    0.0000 F   0  0  0  0  0  0  0  0  0  0  0  0
    2.3971    5.2500    0.0000 F   0  0  0  0  0  0  0  0  0  0  0  0
    0.8971    3.7500    0.0000 C   0  0  0  0  0  0  0  0  0  0  0  0
    0.8971    2.2500    0.0000 F   0  0  0  0  0  0  0  0  0  0  0  0
    0.8971    5.2500    0.0000 F   0  0  0  0  0  0  0  0  0  0  0  0
   -0.6029    3.7500    0.0000 C   0  0  0  0  0  0  0  0  0  0  0  0
   -0.6029    2.2500    0.0000 F   0  0  0  0  0  0  0  0  0  0  0  0
   -0.6029    5.2500    0.0000 F   0  0  0  0  0  0  0  0  0  0  0  0
   -2.1029    3.7500    0.0000 C   0  0  0  0  0  0  0  0  0  0  0  0
   -2.1029    2.2500    0.0000 F   0  0  0  0  0  0  0  0  0  0  0  0
   -2.1029    5.2500    0.0000 F   0  0  0  0  0  0  0  0  0  0  0  0
   -3.6029    3.7500    0.0000 C   0  0  0  0  0  0  0  0  0  0  0  0
   -3.6029    5.2500    0.0000 F   0  0  0  0  0  0  0  0  0  0  0  0
   -3.6029    2.2500    0.0000 F   0  0  0  0  0  0  0  0  0  0  0  0
   -5.1029    3.7500    0.0000 C   0  0  0  0  0  0  0  0  0  0  0  0
   -6.6029    3.7500    0.0000 F   0  0  0  0  0  0  0  0  0  0  0  0
   -5.1029    2.2500    0.0000 F   0  0  0  0  0  0  0  0  0  0  0  0
   -5.1029    5.2500    0.0000 F   0  0  0  0  0  0  0  0  0  0  0  0
  1  2  1  0
  2  3  1  0
  3  4  1  0
  4  5  1  0
  5  6  1  0
  6  7  1  0
  7  8  1  0
  8  9  1  0
  9 10  1  0
  4 11  1  0
 11 12  2  0
 11 13  2  0
 11 14  1  0
 14 15  1  0
 14 16  1  0
 14 17  1  0
 17 18  1  0
 17 19  1  0
 17 20  1  0
 20 21  1  0
 20 22  1  0
 20 23  1  0
 23 24  1  0
 23 25  1  0
 23 26  1  0
 26 27  1  0
 26 28  1  0
 26 29  1  0
 29 30  1  0
 29 31  1  0
 29 32  1  0
 32 33  1  0
 32 34  1  0
 32 35  1  0
M  END
$$$$

     RDKit          2D

 38 38  0  0  0  0  0  0  0  0999 V2000
    6.0000   -2.5981    0.0000 C   0  0  0  0  0  0  0  0  0  0  0  0
    5.2500   -1.2990    0.0000 C   0  0  0  0  0  0  0  0  0  0  0  0
    6.0000    0.0000    0.0000 C   0  0  0  0  0  0  0  0  0  0  0  0
    7.5000    0.0000    0.0000 C   0  0  0  0  0  0  0  0  0  0  0  0
    7.5000    1.5000    0.0000 F   0  0  0  0  0  0  0  0  0  0  0  0
    7.5000   -1.5000    0.0000 F   0  0  0  0  0  0  0  0  0  0  0  0
    9.0000    0.0000    0.0000 C   0  0  0  0  0  0  0  0  0  0  0  0
    9.0000   -1.5000    0.0000 F   0  0  0  0  0  0  0  0  0  0  0  0
    9.0000    1.5000    0.0000 F   0  0  0  0  0  0  0  0  0  0  0  0
   10.5000    0.0000    0.0000 C   0  0  0  0  0  0  0  0  0  0  0  0
   12.0000    0.0000    0.0000 F   0  0  0  0  0  0  0  0  0  0  0  0
   10.5000    1.5000    0.0000 F   0  0  0  0  0  0  0  0  0  0  0  0
   10.5000   -1.5000    0.0000 F   0  0  0  0  0  0  0  0  0  0  0  0
    3.7500   -1.2990    0.0000 O   0  0  0  0  0  0  0  0  0  0  0  0
    3.0000    0.0000    0.0000 C   0  0  0  0  0  0  0  0  0  0  0  0
    3.7500    1.2990    0.0000 O   0  0  0  0  0  0  0  0  0  0  0  0
    1.5000    0.0000    0.0000 C   0  0  0  0  0  0  0  0  0  0  0  0
    0.7500   -1.2990    0.0000 C   0  0  0  0  0  0  0  0  0  0  0  0
   -0.7500   -1.2990    0.0000 C   0  0  0  0  0  0  0  0  0  0  0  0
   -1.5000    0.0000    0.0000 C   0  0  0  0  0  0  0  0  0  0  0  0
   -0.7500    1.2990    0.0000 C   0  0  0  0  0  0  0  0  0  0  0  0
   -1.5000    2.5981    0.0000 C   0  0  0  0  0  0  0  0  0  0  0  0
   -3.0000    2.5981    0.0000 O   0  0  0  0  0  0  0  0  0  0  0  0
   -0.7500    3.8971    0.0000 O   0  0  0  0  0  0  0  0  0  0  0  0
   -1.5000    5.1962    0.0000 C   0  0  0  0  0  0  0  0  0  0  0  0
   -0.7500    6.4952    0.0000 C   0  0  0  0  0  0  0  0  0  0  0  0
   -3.0000    5.1962    0.0000 C   0  0  0  0  0  0  0  0  0  0  0  0
   -3.7500    6.4952    0.0000 C   0  0  0  0  0  0  0  0  0  0  0  0
   -5.0490    5.7452    0.0000 F   0  0  0  0  0  0  0  0  0  0  0  0
   -2.4510    7.2452    0.0000 F   0  0  0  0  0  0  0  0  0  0  0  0
   -4.5000    7.7942    0.0000 C   0  0  0  0  0  0  0  0  0  0  0  0
   -3.2010    8.5442    0.0000 F   0  0  0  0  0  0  0  0  0  0  0  0
   -5.7990    7.0442    0.0000 F   0  0  0  0  0  0  0  0  0  0  0  0
   -5.2500    9.0933    0.0000 C   0  0  0  0  0  0  0  0  0  0  0  0
   -6.0000   10.3923    0.0000 F   0  0  0  0  0  0  0  0  0  0  0  0
   -6.5490    8.3433    0.0000 F   0  0  0  0  0  0  0  0  0  0  0  0
   -3.9510    9.8433    0.0000 F   0  0  0  0  0  0  0  0  0  0  0  0
    0.7500    1.2990    0.0000 C   0  0  0  0  0  0  0  0  0  0  0  0
  1  2  1  0
  2  3  1  0
  3  4  1  0
  4  5  1  0
  4  6  1  0
  4  7  1  0
  7  8  1  0
  7  9  1  0
  7 10  1  0
 10 11  1  0
 10 12  1  0
 10 13  1  0
  2 14  1  0
 14 15  1  0
 15 16  2  0
 15 17  1  0
 17 18  2  0
 18 19  1  0
 19 20  2  0
 20 21  1  0
 21 22  1  0
 22 23  2  0
 22 24  1  0
 24 25  1  0
 25 26  1  0
 25 27  1  0
 27 28  1  0
 28 29  1  0
 28 30  1  0
 28 31  1  0
 31 32  1  0
 31 33  1  0
 31 34  1  0
 34 35  1  0
 34 36  1  0
 34 37  1  0
 21 38  2  0
 38 17  1  0
M  END
$$$$

     RDKit          2D

 70 69  0  0  0  0  0  0  0  0999 V2000
    0.0000    0.0000    0.0000 C   0  0  0  0  0  0  0  0  0  0  0  0
    1.2990    0.7500    0.0000 O   0  0  0  0  0  0  0  0  0  0  0  0
    2.5981   -0.0000    0.0000 Si  0  0  0  0  0  4  0  0  0  0  0  0
    3.8971   -0.7500    0.0000 C   0  0  0  0  0  0  0  0  0  0  0  0
    3.8971   -2.2500    0.0000 C   0  0  0  0  0  0  0  0  0  0  0  0
    5.1962   -3.0000    0.0000 C   0  0  0  0  0  0  0  0  0  0  0  0
    5.1962   -4.5000    0.0000 N   0  0  0  0  0  0  0  0  0  0  0  0
    6.4952   -5.2500    0.0000 C   0  0  0  0  0  0  0  0  0  0  0  0
    7.7942   -4.5000    0.0000 O   0  0  0  0  0  0  0  0  0  0  0  0
    6.4952   -6.7500    0.0000 C   0  0  0  0  0  0  0  0  0  0  0  0
    7.9952   -6.7500    0.0000 F   0  0  0  0  0  0  0  0  0  0  0  0
    4.9952   -6.7500    0.0000 F   0  0  0  0  0  0  0  0  0  0  0  0
    6.4952   -8.2500    0.0000 C   0  0  0  0  0  0  0  0  0  0  0  0
    4.9952   -8.2500    0.0000 F   0  0  0  0  0  0  0  0  0  0  0  0
    7.9952   -8.2500    0.0000 F   0  0  0  0  0  0  0  0  0  0  0  0
    6.4952   -9.7500    0.0000 C   0  0  0  0  0  0  0  0  0  0  0  0
    7.9952   -9.7500    0.0000 F   0  0  0  0  0  0  0  0  0  0  0  0
    4.9952   -9.7500    0.0000 F   0  0  0  0  0  0  0  0  0  0  0  0
    6.4952  -11.2500    0.0000 C   0  0  0  0  0  0  0  0  0  0  0  0
    4.9952  -11.2500    0.0000 F   0  0  0  0  0  0  0  0  0  0  0  0
    7.9952  -11.2500    0.0000 F   0  0  0  0  0  0  0  0  0  0  0  0
    6.4952  -12.7500    0.0000 C   0  0  0  0  0  0  0  0  0  0  0  0
    7.9952  -12.7500    0.0000 F   0  0  0  0  0  0  0  0  0  0  0  0
    4.9952  -12.7500    0.0000 F   0  0  0  0  0  0  0  0  0  0  0  0
    6.4952  -14.2500    0.0000 C   0  0  0  0  0  0  0  0  0  0  0  0
    4.9952  -14.2500    0.0000 F   0  0  0  0  0  0  0  0  0  0  0  0
    7.9952  -14.2500    0.0000 F   0  0  0  0  0  0  0  0  0  0  0  0
    6.4952  -15.7500    0.0000 C   0  0  0  0  0  0  0  0  0  0  0  0
    6.4952  -17.2500    0.0000 F   0  0  0  0  0  0  0  0  0  0  0  0
    7.9952  -15.7500    0.0000 F   0  0  0  0  0  0  0  0  0  0  0  0
    4.9952  -15.7500    0.0000 F   0  0  0  0  0  0  0  0  0  0  0  0
    1.8481   -1.2990    0.0000 O   0  0  0  0  0  0  0  0  0  0  0  0
    2.5981   -2.5981    0.0000 C   0  0  0  0  0  0  0  0  0  0  0  0
    3.3481    1.2990    0.0000 O   0  0  0  0  0  0  0  0  0  0  0  0
    4.8481    1.2990    0.0000 C   0  0  0  0  0  0  0  0  0  0  0  0
    5.5981    2.5981    0.0000 C   0  0  0  0  0  0  0  0  0  0  0  0
    7.0981    2.5981    0.0000 O   0  0  0  0  0  0  0  0  0  0  0  0
    7.8481    3.8971    0.0000 Si  0  0  0  0  0  4  0  0  0  0  0  0
    9.1471    3.1471    0.0000 C   0  0  0  0  0  0  0  0  0  0  0  0
   10.4462    3.8971    0.0000 C   0  0  0  0  0  0  0  0  0  0  0  0
   11.7452    3.1471    0.0000 C   0  0  0  0  0  0  0  0  0  0  0  0
   13.0442    3.8971    0.0000 N   0  0  0  0  0  0  0  0  0  0  0  0
   14.3433    3.1471    0.0000 C   0  0  0  0  0  0  0  0  0  0  0  0
   14.3433    1.6471    0.0000 O   0  0  0  0  0  0  0  0  0  0  0  0
   15.6423    3.8971    0.0000 C   0  0  0  0  0  0  0  0  0  0  0  0
   16.3923    2.5981    0.0000 F   0  0  0  0  0  0  0  0  0  0  0  0
   14.8923    5.1962    0.0000 F   0  0  0  0  0  0  0  0  0  0  0  0
   16.9413    4.6471    0.0000 C   0  0  0  0  0  0  0  0  0  0  0  0
   16.1913    5.9462    0.0000 F   0  0  0  0  0  0  0  0  0  0  0  0
   17.6913    3.3481    0.0000 F   0  0  0  0  0  0  0  0  0  0  0  0
   18.2404    5.3971    0.0000 C   0  0  0  0  0  0  0  0  0  0  0  0
   18.9904    4.0981    0.0000 F   0  0  0  0  0  0  0  0  0  0  0  0
   17.4904    6.6962    0.0000 F   0  0  0  0  0  0  0  0  0  0  0  0
   19.5394    6.1471    0.0000 C   0  0  0  0  0  0  0  0  0  0  0  0
   18.7894    7.4462    0.0000 F   0  0  0  0  0  0  0  0  0  0  0  0
   20.2894    4.8481    0.0000 F   0  0  0  0  0  0  0  0  0  0  0  0
   20.8385    6.8971    0.0000 C   0  0  0  0  0  0  0  0  0  0  0  0
   21.5885    5.5981    0.0000 F   0  0  0  0  0  0  0  0  0  0  0  0
   20.0885    8.1962    0.0000 F   0  0  0  0  0  0  0  0  0  0  0  0
   22.1375    7.6471    0.0000 C   0  0  0  0  0  0  0  0  0  0  0  0
   21.3875    8.9462    0.0000 F   0  0  0  0  0  0  0  0  0  0  0  0
   22.8875    6.3481    0.0000 F   0  0  0  0  0  0  0  0  0  0  0  0
   23.4365    8.3971    0.0000 C   0  0  0  0  0  0  0  0  0  0  0  0
   24.7356    9.1471    0.0000 F   0  0  0  0  0  0  0  0  0  0  0  0
   24.1865    7.0981    0.0000 F   0  0  0  0  0  0  0  0  0  0  0  0
   22.6865    9.6962    0.0000 F   0  0  0  0  0  0  0  0  0  0  0  0
    6.5490    4.6471    0.0000 O   0  0  0  0  0  0  0  0  0  0  0  0
    6.5490    6.1471    0.0000 C   0  0  0  0  0  0  0  0  0  0  0  0
    8.5981    5.1962    0.0000 O   0  0  0  0  0  0  0  0  0  0  0  0
    7.8481    6.4952    0.0000 C   0  0  0  0  0  0  0  0  0  0  0  0
  1  2  1  0
  2  3  1  0
  3  4  1  0
  4  5  1  0
  5  6  1  0
  6  7  1  0
  7  8  1  0
  8  9  2  0
  8 10  1  0
 10 11  1  0
 10 12  1  0
 10 13  1  0
 13 14  1  0
 13 15  1  0
 13 16  1  0
 16 17  1  0
 16 18  1  0
 16 19  1  0
 19 20  1  0
 19 21  1  0
 19 22  1  0
 22 23  1  0
 22 24  1  0
 22 25  1  0
 25 26  1  0
 25 27  1  0
 25 28  1  0
 28 29  1  0
 28 30  1  0
 28 31  1  0
  3 32  1  0
 32 33  1  0
  3 34  1  0
 34 35  1  0
 35 36  1  0
 36 37  1  0
 37 38  1  0
 38 39  1  0
 39 40  1  0
 40 41  1  0
 41 42  1  0
 42 43  1  0
 43 44  2  0
 43 45  1  0
 45 46  1  0
 45 47  1  0
 45 48  1  0
 48 49  1  0
 48 50  1  0
 48 51  1  0
 51 52  1  0
 51 53  1  0
 51 54  1  0
 54 55  1  0
 54 56  1  0
 54 57  1  0
 57 58  1  0
 57 59  1  0
 57 60  1  0
 60 61  1  0
 60 62  1  0
 60 63  1  0
 63 64  1  0
 63 65  1  0
 63 66  1  0
 38 67  1  0
 67 68  1  0
 38 69  1  0
 69 70  1  0
M  END
$$$$

     RDKit          2D

 70 69  0  0  0  0  0  0  0  0999 V2000
    0.0000    0.0000    0.0000 C   0  0  0  0  0  0  0  0  0  0  0  0
    1.2990    0.7500    0.0000 C   0  0  0  0  0  0  0  0  0  0  0  0
    2.5981   -0.0000    0.0000 C   0  0  0  0  0  0  0  0  0  0  0  0
    3.8971    0.7500    0.0000 N   0  0  0  0  0  0  0  0  0  0  0  0
    5.1962   -0.0000    0.0000 C   0  0  0  0  0  0  0  0  0  0  0  0
    6.4952    0.7500    0.0000 C   0  0  0  0  0  0  0  0  0  0  0  0
    7.7942   -0.0000    0.0000 O   0  0  0  0  0  0  0  0  0  0  0  0
    9.0933    0.7500    0.0000 C   0  0  0  0  0  0  0  0  0  0  0  0
   10.3923   -0.0000    0.0000 C   0  0  0  0  0  0  0  0  0  0  0  0
   11.6913    0.7500    0.0000 O   0  0  0  0  0  0  0  0  0  0  0  0
   12.9904   -0.0000    0.0000 N   0  0  0  0  0  0  0  0  0  0  0  0
   14.2894    0.7500    0.0000 C   0  0  0  0  0  0  0  0  0  0  0  0
   15.5885   -0.0000    0.0000 C   0  0  0  0  0  0  0  0  0  0  0  0
   16.8875    0.7500    0.0000 C   0  0  0  0  0  0  0  0  0  0  0  0
   12.9904   -1.5000    0.0000 S   0  0  0  0  0  0  0  0  0  0  0  0
   11.4904   -1.5000    0.0000 O   0  0  0  0  0  0  0  0  0  0  0  0
   13.7816   -1.4028    0.0000 O   0  0  0  0  0  0  0  0  0  0  0  0
   12.9904   -3.0000    0.0000 C   0  0  0  0  0  0  0  0  0  0  0  0
   11.4904   -3.0000    0.0000 F   0  0  0  0  0  0  0  0  0  0  0  0
   12.9904   -4.5000    0.0000 F   0  0  0  0  0  0  0  0  0  0  0  0
   14.4904   -3.0000    0.0000 C   0  0  0  0  0  0  0  0  0  0  0  0
   14.5983   -2.1209    0.0000 F   0  0  0  0  0  0  0  0  0  0  0  0
   14.4904   -4.5000    0.0000 F   0  0  0  0  0  0  0  0  0  0  0  0
   15.9904   -3.0000    0.0000 C   0  0  0  0  0  0  0  0  0  0  0  0
   15.9904   -1.5000    0.0000 F   0  0  0  0  0  0  0  0  0  0  0  0
   15.9904   -4.5000    0.0000 F   0  0  0  0  0  0  0  0  0  0  0  0
   17.4904   -3.0000    0.0000 C   0  0  0  0  0  0  0  0  0  0  0  0
   17.4904   -1.5000    0.0000 F   0  0  0  0  0  0  0  0  0  0  0  0
   17.4904   -4.5000    0.0000 F   0  0  0  0  0  0  0  0  0  0  0  0
   18.9904   -3.0000    0.0000 C   0  0  0  0  0  0  0  0  0  0  0  0
   18.9904   -4.5000    0.0000 F   0  0  0  0  0  0  0  0  0  0  0  0
   18.9904   -1.5000    0.0000 F   0  0  0  0  0  0  0  0  0  0  0  0
   20.4904   -3.0000    0.0000 C   0  0  0  0  0  0  0  0  0  0  0  0
   20.4904   -4.5000    0.0000 F   0  0  0  0  0  0  0  0  0  0  0  0
   20.4904   -1.5000    0.0000 F   0  0  0  0  0  0  0  0  0  0  0  0
   21.9904   -3.0000    0.0000 C   0  0  0  0  0  0  0  0  0  0  0  0
   21.9904   -4.5000    0.0000 F   0  0  0  0  0  0  0  0  0  0  0  0
   21.9904   -1.5000    0.0000 F   0  0  0  0  0  0  0  0  0  0  0  0
   23.4904   -3.0000    0.0000 C   0  0  0  0  0  0  0  0  0  0  0  0
   24.9904   -3.0000    0.0000 F   0  0  0  0  0  0  0  0  0  0  0  0
   23.4904   -1.5000    0.0000 F   0  0  0  0  0  0  0  0  0  0  0  0
   23.4904   -4.5000    0.0000 F   0  0  0  0  0  0  0  0  0  0  0  0
    3.8971    2.2500    0.0000 S   0  0  0  0  0  0  0  0  0  0  0  0
    2.4083    2.0672    0.0000 O   0  0  0  0  0  0  0  0  0  0  0  0
    5.3971    2.2500    0.0000 O   0  0  0  0  0  0  0  0  0  0  0  0
    3.8971    3.7500    0.0000 C   0  0  0  0  0  0  0  0  0  0  0  0
    5.3971    3.7500    0.0000 F   0  0  0  0  0  0  0  0  0  0  0  0
    3.8971    5.2500    0.0000 F   0  0  0  0  0  0  0  0  0  0  0  0
    2.3971    3.7500    0.0000 C   0  0  0  0  0  0  0  0  0  0  0  0
    2.2143    2.2612    0.0000 F   0  0  0  0  0  0  0  0  0  0  0  0
    2.3971    5.2500    0.0000 F   0  0  0  0  0  0  0  0  0  0  0  0
    0.8971    3.7500    0.0000 C   0  0  0  0  0  0  0  0  0  0  0  0
    0.8971    2.2500    0.0000 F   0  0  0  0  0  0  0  0  0  0  0  0
    0.8971    5.2500    0.0000 F   0  0  0  0  0  0  0  0  0  0  0  0
   -0.6029    3.7500    0.0000 C   0  0  0  0  0  0  0  0  0  0  0  0
   -0.6029    2.2500    0.0000 F   0  0  0  0  0  0  0  0  0  0  0  0
   -0.6029    5.2500    0.0000 F   0  0  0  0  0  0  0  0  0  0  0  0
   -2.1029    3.7500    0.0000 C   0  0  0  0  0  0  0  0  0  0  0  0
   -2.1029    2.2500    0.0000 F   0  0  0  0  0  0  0  0  0  0  0  0
   -2.1029    5.2500    0.0000 F   0  0  0  0  0  0  0  0  0  0  0  0
   -3.6029    3.7500    0.0000 C   0  0  0  0  0  0  0  0  0  0  0  0
   -3.6029    5.2500    0.0000 F   0  0  0  0  0  0  0  0  0  0  0  0
   -3.6029    2.2500    0.0000 F   0  0  0  0  0  0  0  0  0  0  0  0
   -5.1029    3.7500    0.0000 C   0  0  0  0  0  0  0  0  0  0  0  0
   -5.1029    2.2500    0.0000 F   0  0  0  0  0  0  0  0  0  0  0  0
   -5.1029    5.2500    0.0000 F   0  0  0  0  0  0  0  0  0  0  0  0
   -6.6029    3.7500    0.0000 C   0  0  0  0  0  0  0  0  0  0  0  0
   -8.1029    3.7500    0.0000 F   0  0  0  0  0  0  0  0  0  0  0  0
   -6.6029    5.2500    0.0000 F   0  0  0  0  0  0  0  0  0  0  0  0
   -6.6029    2.2500    0.0000 F   0  0  0  0  0  0  0  0  0  0  0  0
  1  2  1  0
  2  3  1  0
  3  4  1  0
  4  5  1  0
  5  6  1  0
  6  7  1  0
  7  8  1  0
  8  9  1  0
  9 10  1  0
 10 11  1  0
 11 12  1  0
 12 13  1  0
 13 14  1  0
 11 15  1  0
 15 16  2  0
 15 17  2  0
 15 18  1  0
 18 19  1  0
 18 20  1  0
 18 21  1  0
 21 22  1  0
 21 23  1  0
 21 24  1  0
 24 25  1  0
 24 26  1  0
 24 27  1  0
 27 28  1  0
 27 29  1  0
 27 30  1  0
 30 31  1  0
 30 32  1  0
 30 33  1  0
 33 34  1  0
 33 35  1  0
 33 36  1  0
 36 37  1  0
 36 38  1  0
 36 39  1  0
 39 40  1  0
 39 41  1  0
 39 42  1  0
  4 43  1  0
 43 44  2  0
 43 45  2  0
 43 46  1  0
 46 47  1  0
 46 48  1  0
 46 49  1  0
 49 50  1  0
 49 51  1  0
 49 52  1  0
 52 53  1  0
 52 54  1  0
 52 55  1  0
 55 56  1  0
 55 57  1  0
 55 58  1  0
 58 59  1  0
 58 60  1  0
 58 61  1  0
 61 62  1  0
 61 63  1  0
 61 64  1  0
 64 65  1  0
 64 66  1  0
 64 67  1  0
 67 68  1  0
 67 69  1  0
 67 70  1  0
M  END
$$$$

     RDKit          2D

 41 40  0  0  0  0  0  0  0  0999 V2000
    0.0000   -0.0000    0.0000 C   0  0  0  0  0  0  0  0  0  0  0  0
    1.2990    0.7500    0.0000 C   0  0  0  0  0  0  0  0  0  0  0  0
    2.5981   -0.0000    0.0000 C   0  0  0  0  0  0  0  0  0  0  0  0
    3.8971    0.7500    0.0000 O   0  0  0  0  0  0  0  0  0  0  0  0
    5.1962    0.0000    0.0000 C   0  0  0  0  0  0  0  0  0  0  0  0
    6.4952    0.7500    0.0000 C   0  0  0  0  0  0  0  0  0  0  0  0
    7.7942    0.0000    0.0000 O   0  0  0  0  0  0  0  0  0  0  0  0
    1.2990    2.2500    0.0000 O   0  0  0  0  0  0  0  0  0  0  0  0
    2.5981    3.0000    0.0000 C   0  0  0  0  0  0  0  0  0  0  0  0
    3.8971    2.2500    0.0000 O   0  0  0  0  0  0  0  0  0  0  0  0
    2.5981    4.5000    0.0000 C   0  0  0  0  0  0  0  0  0  0  0  0
    3.8971    5.2500    0.0000 N   0  0  0  0  0  0  0  0  0  0  0  0
    3.8971    6.7500    0.0000 C   0  0  0  0  0  0  0  0  0  0  0  0
    5.1962    4.5000    0.0000 S   0  0  0  0  0  0  0  0  0  0  0  0
    4.4462    3.2010    0.0000 O   0  0  0  0  0  0  0  0  0  0  0  0
    5.5076    5.2338    0.0000 O   0  0  0  0  0  0  0  0  0  0  0  0
    6.4952    3.7500    0.0000 C   0  0  0  0  0  0  0  0  0  0  0  0
    5.7452    2.4510    0.0000 F   0  0  0  0  0  0  0  0  0  0  0  0
    7.7942    3.0000    0.0000 F   0  0  0  0  0  0  0  0  0  0  0  0
    7.2452    5.0490    0.0000 C   0  0  0  0  0  0  0  0  0  0  0  0
    6.5378    5.5821    0.0000 F   0  0  0  0  0  0  0  0  0  0  0  0
    8.5442    4.2990    0.0000 F   0  0  0  0  0  0  0  0  0  0  0  0
    7.9952    6.3481    0.0000 C   0  0  0  0  0  0  0  0  0  0  0  0
    6.6962    7.0981    0.0000 F   0  0  0  0  0  0  0  0  0  0  0  0
    9.2942    5.5981    0.0000 F   0  0  0  0  0  0  0  0  0  0  0  0
    8.7452    7.6471    0.0000 C   0  0  0  0  0  0  0  0  0  0  0  0
   10.0442    6.8971    0.0000 F   0  0  0  0  0  0  0  0  0  0  0  0
    7.4462    8.3971    0.0000 F   0  0  0  0  0  0  0  0  0  0  0  0
    9.4952    8.9462    0.0000 C   0  0  0  0  0  0  0  0  0  0  0  0
   10.7942    8.1962    0.0000 F   0  0  0  0  0  0  0  0  0  0  0  0
    8.1962    9.6962    0.0000 F   0  0  0  0  0  0  0  0  0  0  0  0
   10.2452   10.2452    0.0000 C   0  0  0  0  0  0  0  0  0  0  0  0
    8.9462   10.9952    0.0000 F   0  0  0  0  0  0  0  0  0  0  0  0
   11.5442    9.4952    0.0000 F   0  0  0  0  0  0  0  0  0  0  0  0
   10.9952   11.5442    0.0000 C   0  0  0  0  0  0  0  0  0  0  0  0
   12.2942   10.7942    0.0000 F   0  0  0  0  0  0  0  0  0  0  0  0
    9.6962   12.2942    0.0000 F   0  0  0  0  0  0  0  0  0  0  0  0
   11.7452   12.8433    0.0000 C   0  0  0  0  0  0  0  0  0  0  0  0
   12.4952   14.1423    0.0000 F   0  0  0  0  0  0  0  0  0  0  0  0
   10.4462   13.5933    0.0000 F   0  0  0  0  0  0  0  0  0  0  0  0
   13.0442   12.0933    0.0000 F   0  0  0  0  0  0  0  0  0  0  0  0
  1  2  1  0
  2  3  1  0
  3  4  1  0
  4  5  1  0
  5  6  1  0
  6  7  1  0
  2  8  1  0
  8  9  1  0
  9 10  2  0
  9 11  1  0
 11 12  1  0
 12 13  1  0
 12 14  1  0
 14 15  2  0
 14 16  2  0
 14 17  1  0
 17 18  1  0
 17 19  1  0
 17 20  1  0
 20 21  1  0
 20 22  1  0
 20 23  1  0
 23 24  1  0
 23 25  1  0
 23 26  1  0
 26 27  1  0
 26 28  1  0
 26 29  1  0
 29 30  1  0
 29 31  1  0
 29 32  1  0
 32 33  1  0
 32 34  1  0
 32 35  1  0
 35 36  1  0
 35 37  1  0
 35 38  1  0
 38 39  1  0
 38 40  1  0
 38 41  1  0
M  END
$$$$

     RDKit          2D

 44 42  0  0  0  0  0  0  0  0999 V2000
   -0.0000    7.5000    0.0000 C   0  0  0  0  0  0  0  0  0  0  0  0
    1.2990    6.7500    0.0000 C   0  0  0  0  0  0  0  0  0  0  0  0
    2.5981    7.5000    0.0000 C   0  0  0  0  0  0  0  0  0  0  0  0
    3.8971    6.7500    0.0000 N   0  0  0  0  0  0  0  0  0  0  0  0
    5.1962    7.5000    0.0000 C   0  0  0  0  0  0  0  0  0  0  0  0
    6.4952    6.7500    0.0000 C   0  0  0  0  0  0  0  0  0  0  0  0
    7.7942    7.5000    0.0000 O   0  0  0  0  0  0  0  0  0  0  0  0
    9.0933    6.7500    0.0000 C   0  0  0  0  0  0  0  0  0  0  0  0
   10.3923    7.5000    0.0000 C   0  0  0  0  0  0  0  0  0  0  0  0
   11.6913    6.7500    0.0000 C   0  0  0  0  0  0  0  0  0  0  0  0
   12.9904    7.5000    0.0000 C   0  0  0  0  0  0  0  0  0  0  0  0
   14.2894    6.7500    0.0000 S   0  0  0  0  0  0  0  0  0  0  0  0
   15.0394    8.0490    0.0000 O   0  0  0  0  0  0  0  0  0  0  0  0
   13.5394    5.4510    0.0000 O   0  0  0  0  0  0  0  0  0  0  0  0
   15.5885    6.0000    0.0000 O   0  0  0  0  0  0  0  0  0  0  0  0
    3.8971    5.2500    0.0000 S   0  0  0  0  0  0  0  0  0  0  0  0
    3.1059    5.3472    0.0000 O   0  0  0  0  0  0  0  0  0  0  0  0
    5.3971    5.2500    0.0000 O   0  0  0  0  0  0  0  0  0  0  0  0
    3.8971    3.7500    0.0000 C   0  0  0  0  0  0  0  0  0  0  0  0
    5.3971    3.7500    0.0000 F   0  0  0  0  0  0  0  0  0  0  0  0
    3.8971    2.2500    0.0000 F   0  0  0  0  0  0  0  0  0  0  0  0
    2.3971    3.7500    0.0000 C   0  0  0  0  0  0  0  0  0  0  0  0
    2.3971    2.2500    0.0000 F   0  0  0  0  0  0  0  0  0  0  0  0
    2.2891    4.6291    0.0000 F   0  0  0  0  0  0  0  0  0  0  0  0
    0.8971    3.7500    0.0000 C   0  0  0  0  0  0  0  0  0  0  0  0
    0.8971    2.2500    0.0000 F   0  0  0  0  0  0  0  0  0  0  0  0
    0.8971    5.2500    0.0000 F   0  0  0  0  0  0  0  0  0  0  0  0
   -0.6029    3.7500    0.0000 C   0  0  0  0  0  0  0  0  0  0  0  0
   -0.6029    2.2500    0.0000 F   0  0  0  0  0  0  0  0  0  0  0  0
   -0.6029    5.2500    0.0000 F   0  0  0  0  0  0  0  0  0  0  0  0
   -2.1029    3.7500    0.0000 C   0  0  0  0  0  0  0  0  0  0  0  0
   -2.1029    2.2500    0.0000 F   0  0  0  0  0  0  0  0  0  0  0  0
   -2.1029    5.2500    0.0000 F   0  0  0  0  0  0  0  0  0  0  0  0
   -3.6029    3.7500    0.0000 C   0  0  0  0  0  0  0  0  0  0  0  0
   -3.6029    5.2500    0.0000 F   0  0  0  0  0  0  0  0  0  0  0  0
   -3.6029    2.2500    0.0000 F   0  0  0  0  0  0  0  0  0  0  0  0
   -5.1029    3.7500    0.0000 C   0  0  0  0  0  0  0  0  0  0  0  0
   -5.1029    2.2500    0.0000 F   0  0  0  0  0  0  0  0  0  0  0  0
   -5.1029    5.2500    0.0000 F   0  0  0  0  0  0  0  0  0  0  0  0
   -6.6029    3.7500    0.0000 C   0  0  0  0  0  0  0  0  0  0  0  0
   -8.1029    3.7500    0.0000 F   0  0  0  0  0  0  0  0  0  0  0  0
   -6.6029    5.2500    0.0000 F   0  0  0  0  0  0  0  0  0  0  0  0
   -6.6029    2.2500    0.0000 F   0  0  0  0  0  0  0  0  0  0  0  0
    0.0000    9.0490    0.0000 Na  0  0  0  0  0 15  0  0  0  0  0  0
  1  2  1  0
  2  3  1  0
  3  4  1  0
  4  5  1  0
  5  6  1  0
  6  7  1  0
  7  8  1  0
  8  9  1  0
  9 10  1  0
 10 11  1  0
 11 12  1  0
 12 13  2  0
 12 14  2  0
 12 15  1  0
  4 16  1  0
 16 17  2  0
 16 18  2  0
 16 19  1  0
 19 20  1  0
 19 21  1  0
 19 22  1  0
 22 23  1  0
 22 24  1  0
 22 25  1  0
 25 26  1  0
 25 27  1  0
 25 28  1  0
 28 29  1  0
 28 30  1  0
 28 31  1  0
 31 32  1  0
 31 33  1  0
 31 34  1  0
 34 35  1  0
 34 36  1  0
 34 37  1  0
 37 38  1  0
 37 39  1  0
 37 40  1  0
 40 41  1  0
 40 42  1  0
 40 43  1  0
M  CHG  2  15  -1  44   1
M  END
$$$$

     RDKit          2D

 22 21  0  0  0  0  0  0  0  0999 V2000
    1.1979   -2.4028    0.0000 O   0  0  0  0  0  0  0  0  0  0  0  0
    0.0000   -1.5000    0.0000 S   0  0  0  0  0  0  0  0  0  0  0  0
   -1.2990   -2.2500    0.0000 O   0  0  0  0  0  0  0  0  0  0  0  0
    0.0000    0.0000    0.0000 C   0  0  0  0  0  0  0  0  0  0  0  0
   -1.5000    0.0000    0.0000 F   0  0  0  0  0  0  0  0  0  0  0  0
    0.0000    1.5000    0.0000 F   0  0  0  0  0  0  0  0  0  0  0  0
    1.5000    0.0000    0.0000 C   0  0  0  0  0  0  0  0  0  0  0  0
    1.5000    1.5000    0.0000 F   0  0  0  0  0  0  0  0  0  0  0  0
    1.6828   -1.4888    0.0000 F   0  0  0  0  0  0  0  0  0  0  0  0
    3.0000    0.0000    0.0000 C   0  0  0  0  0  0  0  0  0  0  0  0
    3.0000   -1.5000    0.0000 F   0  0  0  0  0  0  0  0  0  0  0  0
    3.0000    1.5000    0.0000 F   0  0  0  0  0  0  0  0  0  0  0  0
    4.5000    0.0000    0.0000 C   0  0  0  0  0  0  0  0  0  0  0  0
    4.5000   -1.5000    0.0000 F   0  0  0  0  0  0  0  0  0  0  0  0
    4.5000    1.5000    0.0000 F   0  0  0  0  0  0  0  0  0  0  0  0
    6.0000    0.0000    0.0000 C   0  0  0  0  0  0  0  0  0  0  0  0
    6.0000    1.5000    0.0000 F   0  0  0  0  0  0  0  0  0  0  0  0
    6.0000   -1.5000    0.0000 F   0  0  0  0  0  0  0  0  0  0  0  0
    7.5000    0.0000    0.0000 C   0  0  0  0  0  0  0  0  0  0  0  0
    9.0000    0.0000    0.0000 F   0  0  0  0  0  0  0  0  0  0  0  0
    7.5000   -1.5000    0.0000 F   0  0  0  0  0  0  0  0  0  0  0  0
    7.5000    1.5000    0.0000 F   0  0  0  0  0  0  0  0  0  0  0  0
  1  2  2  0
  2  3  1  0
  2  4  1  0
  4  5  1  0
  4  6  1  0
  4  7  1  0
  7  8  1  0
  7  9  1  0
  7 10  1  0
 10 11  1  0
 10 12  1  0
 10 13  1  0
 13 14  1  0
 13 15  1  0
 13 16  1  0
 16 17  1  0
 16 18  1  0
 16 19  1  0
 19 20  1  0
 19 21  1  0
 19 22  1  0
M  END
$$$$

     RDKit          2D

 62 61  0  0  0  0  0  0  0  0999 V2000
    1.2990    2.2500    0.0000 O   0  0  0  0  0  0  0  0  0  0  0  0
    1.2990    0.7500    0.0000 C   0  0  0  0  0  0  0  0  0  0  0  0
    0.0000    0.0000    0.0000 C   0  0  0  0  0  0  0  0  0  0  0  0
   -1.2990    0.7500    0.0000 O   0  0  0  0  0  0  0  0  0  0  0  0
   -2.5981    0.0000    0.0000 C   0  0  0  0  0  0  0  0  0  0  0  0
   -3.8971    0.7500    0.0000 C   0  0  0  0  0  0  0  0  0  0  0  0
   -5.1962    0.0000    0.0000 O   0  0  0  0  0  0  0  0  0  0  0  0
   -6.4952    0.7500    0.0000 C   0  0  0  0  0  0  0  0  0  0  0  0
   -7.7942    0.0000    0.0000 C   0  0  0  0  0  0  0  0  0  0  0  0
   -7.7942   -1.5000    0.0000 O   0  0  0  0  0  0  0  0  0  0  0  0
   -9.0933    0.7500    0.0000 C   0  0  0  0  0  0  0  0  0  0  0  0
  -10.3923    0.0000    0.0000 C   0  0  0  0  0  0  0  0  0  0  0  0
  -11.1423    1.2990    0.0000 F   0  0  0  0  0  0  0  0  0  0  0  0
   -9.6423   -1.2990    0.0000 F   0  0  0  0  0  0  0  0  0  0  0  0
  -11.6913   -0.7500    0.0000 C   0  0  0  0  0  0  0  0  0  0  0  0
  -10.9413   -2.0490    0.0000 F   0  0  0  0  0  0  0  0  0  0  0  0
  -12.4413    0.5490    0.0000 F   0  0  0  0  0  0  0  0  0  0  0  0
  -12.9904   -1.5000    0.0000 C   0  0  0  0  0  0  0  0  0  0  0  0
  -13.7404   -0.2010    0.0000 F   0  0  0  0  0  0  0  0  0  0  0  0
  -12.2404   -2.7990    0.0000 F   0  0  0  0  0  0  0  0  0  0  0  0
  -14.2894   -2.2500    0.0000 C   0  0  0  0  0  0  0  0  0  0  0  0
  -13.5394   -3.5490    0.0000 F   0  0  0  0  0  0  0  0  0  0  0  0
  -15.0394   -0.9510    0.0000 F   0  0  0  0  0  0  0  0  0  0  0  0
  -15.5885   -3.0000    0.0000 C   0  0  0  0  0  0  0  0  0  0  0  0
  -16.3385   -1.7010    0.0000 F   0  0  0  0  0  0  0  0  0  0  0  0
  -14.8385   -4.2990    0.0000 F   0  0  0  0  0  0  0  0  0  0  0  0
  -16.8875   -3.7500    0.0000 C   0  0  0  0  0  0  0  0  0  0  0  0
  -16.1375   -5.0490    0.0000 F   0  0  0  0  0  0  0  0  0  0  0  0
  -17.6375   -2.4510    0.0000 F   0  0  0  0  0  0  0  0  0  0  0  0
  -18.1865   -4.5000    0.0000 C   0  0  0  0  0  0  0  0  0  0  0  0
  -18.9365   -3.2010    0.0000 F   0  0  0  0  0  0  0  0  0  0  0  0
  -17.4365   -5.7990    0.0000 F   0  0  0  0  0  0  0  0  0  0  0  0
  -19.4856   -5.2500    0.0000 C   0  0  0  0  0  0  0  0  0  0  0  0
  -20.7846   -6.0000    0.0000 F   0  0  0  0  0  0  0  0  0  0  0  0
  -18.7356   -6.5490    0.0000 F   0  0  0  0  0  0  0  0  0  0  0  0
  -20.2356   -3.9510    0.0000 F   0  0  0  0  0  0  0  0  0  0  0  0
    2.5981   -0.0000    0.0000 C   0  0  0  0  0  0  0  0  0  0  0  0
    3.8971    0.7500    0.0000 C   0  0  0  0  0  0  0  0  0  0  0  0
    4.6471   -0.5490    0.0000 F   0  0  0  0  0  0  0  0  0  0  0  0
    3.1471    2.0490    0.0000 F   0  0  0  0  0  0  0  0  0  0  0  0
    5.1962    1.5000    0.0000 C   0  0  0  0  0  0  0  0  0  0  0  0
    4.4462    2.7990    0.0000 F   0  0  0  0  0  0  0  0  0  0  0  0
    5.9462    0.2010    0.0000 F   0  0  0  0  0  0  0  0  0  0  0  0
    6.4952    2.2500    0.0000 C   0  0  0  0  0  0  0  0  0  0  0  0
    7.2452    0.9510    0.0000 F   0  0  0  0  0  0  0  0  0  0  0  0
    5.7452    3.5490    0.0000 F   0  0  0  0  0  0  0  0  0  0  0  0
    7.7942    3.0000    0.0000 C   0  0  0  0  0  0  0  0  0  0  0  0
    7.0442    4.2990    0.0000 F   0  0  0  0  0  0  0  0  0  0  0  0
    8.5442    1.7010    0.0000 F   0  0  0  0  0  0  0  0  0  0  0  0
    9.0933    3.7500    0.0000 C   0  0  0  0  0  0  0  0  0  0  0  0
    9.8433    2.4510    0.0000 F   0  0  0  0  0  0  0  0  0  0  0  0
    8.3433    5.0490    0.0000 F   0  0  0  0  0  0  0  0  0  0  0  0
   10.3923    4.5000    0.0000 C   0  0  0  0  0  0  0  0  0  0  0  0
    9.6423    5.7990    0.0000 F   0  0  0  0  0  0  0  0  0  0  0  0
   11.1423    3.2010    0.0000 F   0  0  0  0  0  0  0  0  0  0  0  0
   11.6913    5.2500    0.0000 C   0  0  0  0  0  0  0  0  0  0  0  0
   12.4413    3.9510    0.0000 F   0  0  0  0  0  0  0  0  0  0  0  0
   10.9413    6.5490    0.0000 F   0  0  0  0  0  0  0  0  0  0  0  0
   12.9904    6.0000    0.0000 C   0  0  0  0  0  0  0  0  0  0  0  0
   14.2894    6.7500    0.0000 F   0  0  0  0  0  0  0  0  0  0  0  0
   12.2404    7.2990    0.0000 F   0  0  0  0  0  0  0  0  0  0  0  0
   13.7404    4.7010    0.0000 F   0  0  0  0  0  0  0  0  0  0  0  0
  1  2  1  0
  2  3  1  0
  3  4  1  0
  4  5  1  0
  5  6  1  0
  6  7  1  0
  7  8  1  0
  8  9  1  0
  9 10  1  0
  9 11  1  0
 11 12  1  0
 12 13  1  0
 12 14  1  0
 12 15  1  0
 15 16  1  0
 15 17  1  0
 15 18  1  0
 18 19  1  0
 18 20  1  0
 18 21  1  0
 21 22  1  0
 21 23  1  0
 21 24  1  0
 24 25  1  0
 24 26  1  0
 24 27  1  0
 27 28  1  0
 27 29  1  0
 27 30  1  0
 30 31  1  0
 30 32  1  0
 30 33  1  0
 33 34  1  0
 33 35  1  0
 33 36  1  0
  2 37  1  0
 37 38  1  0
 38 39  1  0
 38 40  1  0
 38 41  1  0
 41 42  1  0
 41 43  1  0
 41 44  1  0
 44 45  1  0
 44 46  1  0
 44 47  1  0
 47 48  1  0
 47 49  1  0
 47 50  1  0
 50 51  1  0
 50 52  1  0
 50 53  1  0
 53 54  1  0
 53 55  1  0
 53 56  1  0
 56 57  1  0
 56 58  1  0
 56 59  1  0
 59 60  1  0
 59 61  1  0
 59 62  1  0
M  END
$$$$

     RDKit          2D

 31 30  0  0  0  0  0  0  0  0999 V2000
    5.1962    4.5000    0.0000 F   0  0  0  0  0  0  0  0  0  0  0  0
    5.1962    3.0000    0.0000 C   0  0  0  0  0  0  0  0  0  0  0  0
    6.4952    2.2500    0.0000 F   0  0  0  0  0  0  0  0  0  0  0  0
    3.8971    2.2500    0.0000 C   0  0  0  0  0  0  0  0  0  0  0  0
    3.1471    3.5490    0.0000 F   0  0  0  0  0  0  0  0  0  0  0  0
    4.6471    0.9510    0.0000 F   0  0  0  0  0  0  0  0  0  0  0  0
    2.5981    1.5000    0.0000 C   0  0  0  0  0  0  0  0  0  0  0  0
    1.8481    2.7990    0.0000 F   0  0  0  0  0  0  0  0  0  0  0  0
    3.3481    0.2010    0.0000 F   0  0  0  0  0  0  0  0  0  0  0  0
    1.2990    0.7500    0.0000 C   0  0  0  0  0  0  0  0  0  0  0  0
    2.0490   -0.5490    0.0000 F   0  0  0  0  0  0  0  0  0  0  0  0
    0.5490    2.0490    0.0000 F   0  0  0  0  0  0  0  0  0  0  0  0
    0.0000    0.0000    0.0000 C   0  0  0  0  0  0  0  0  0  0  0  0
   -1.2990    0.7500    0.0000 C   0  0  0  0  0  0  0  0  0  0  0  0
   -2.5981    0.0000    0.0000 S   0  0  0  0  0  0  0  0  0  0  0  0
   -3.8971    0.7500    0.0000 S   0  0  0  0  0  0  0  0  0  0  0  0
   -5.1962    0.0000    0.0000 C   0  0  0  0  0  0  0  0  0  0  0  0
   -6.4952    0.7500    0.0000 C   0  0  0  0  0  0  0  0  0  0  0  0
   -7.7942    0.0000    0.0000 C   0  0  0  0  0  0  0  0  0  0  0  0
   -8.5442    1.2990    0.0000 F   0  0  0  0  0  0  0  0  0  0  0  0
   -7.0442   -1.2990    0.0000 F   0  0  0  0  0  0  0  0  0  0  0  0
   -9.0933   -0.7500    0.0000 C   0  0  0  0  0  0  0  0  0  0  0  0
   -8.3433   -2.0490    0.0000 F   0  0  0  0  0  0  0  0  0  0  0  0
   -9.8433    0.5490    0.0000 F   0  0  0  0  0  0  0  0  0  0  0  0
  -10.3923   -1.5000    0.0000 C   0  0  0  0  0  0  0  0  0  0  0  0
  -11.1423   -0.2010    0.0000 F   0  0  0  0  0  0  0  0  0  0  0  0
   -9.6423   -2.7990    0.0000 F   0  0  0  0  0  0  0  0  0  0  0  0
  -11.6913   -2.2500    0.0000 C   0  0  0  0  0  0  0  0  0  0  0  0
  -12.9904   -3.0000    0.0000 F   0  0  0  0  0  0  0  0  0  0  0  0
  -10.9413   -3.5490    0.0000 F   0  0  0  0  0  0  0  0  0  0  0  0
  -12.4413   -0.9510    0.0000 F   0  0  0  0  0  0  0  0  0  0  0  0
  1  2  1  0
  2  3  1  0
  2  4  1  0
  4  5  1  0
  4  6  1  0
  4  7  1  0
  7  8  1  0
  7  9  1  0
  7 10  1  0
 10 11  1  0
 10 12  1  0
 10 13  1  0
 13 14  1  0
 14 15  1  0
 15 16  1  0
 16 17  1  0
 17 18  1  0
 18 19  1  0
 19 20  1  0
 19 21  1  0
 19 22  1  0
 22 23  1  0
 22 24  1  0
 22 25  1  0
 25 26  1  0
 25 27  1  0
 25 28  1  0
 28 29  1  0
 28 30  1  0
 28 31  1  0
M  END
$$$$

     RDKit          2D

 43 42  0  0  0  0  0  0  0  0999 V2000
   -0.0000    7.5000    0.0000 C   0  0  0  0  0  0  0  0  0  0  0  0
    1.2990    6.7500    0.0000 C   0  0  0  0  0  0  0  0  0  0  0  0
    2.5981    7.5000    0.0000 C   0  0  0  0  0  0  0  0  0  0  0  0
    3.8971    6.7500    0.0000 N   0  0  0  0  0  0  0  0  0  0  0  0
    5.1962    7.5000    0.0000 C   0  0  0  0  0  0  0  0  0  0  0  0
    6.4952    6.7500    0.0000 C   0  0  0  0  0  0  0  0  0  0  0  0
    7.7942    7.5000    0.0000 O   0  0  0  0  0  0  0  0  0  0  0  0
    9.0933    6.7500    0.0000 C   0  0  0  0  0  0  0  0  0  0  0  0
   10.3923    7.5000    0.0000 C   0  0  0  0  0  0  0  0  0  0  0  0
   11.6913    6.7500    0.0000 C   0  0  0  0  0  0  0  0  0  0  0  0
   12.9904    7.5000    0.0000 C   0  0  0  0  0  0  0  0  0  0  0  0
   14.2894    6.7500    0.0000 S   0  0  0  0  0  0  0  0  0  0  0  0
   15.0394    8.0490    0.0000 O   0  0  0  0  0  0  0  0  0  0  0  0
   13.5394    5.4510    0.0000 O   0  0  0  0  0  0  0  0  0  0  0  0
   15.5885    6.0000    0.0000 O   0  0  0  0  0  0  0  0  0  0  0  0
    3.8971    5.2500    0.0000 S   0  0  0  0  0  0  0  0  0  0  0  0
    3.1059    5.3472    0.0000 O   0  0  0  0  0  0  0  0  0  0  0  0
    5.3971    5.2500    0.0000 O   0  0  0  0  0  0  0  0  0  0  0  0
    3.8971    3.7500    0.0000 C   0  0  0  0  0  0  0  0  0  0  0  0
    5.3971    3.7500    0.0000 F   0  0  0  0  0  0  0  0  0  0  0  0
    3.8971    2.2500    0.0000 F   0  0  0  0  0  0  0  0  0  0  0  0
    2.3971    3.7500    0.0000 C   0  0  0  0  0  0  0  0  0  0  0  0
    2.3971    2.2500    0.0000 F   0  0  0  0  0  0  0  0  0  0  0  0
    2.2891    4.6291    0.0000 F   0  0  0  0  0  0  0  0  0  0  0  0
    0.8971    3.7500    0.0000 C   0  0  0  0  0  0  0  0  0  0  0  0
    0.8971    2.2500    0.0000 F   0  0  0  0  0  0  0  0  0  0  0  0
    0.8971    5.2500    0.0000 F   0  0  0  0  0  0  0  0  0  0  0  0
   -0.6029    3.7500    0.0000 C   0  0  0  0  0  0  0  0  0  0  0  0
   -0.6029    2.2500    0.0000 F   0  0  0  0  0  0  0  0  0  0  0  0
   -0.6029    5.2500    0.0000 F   0  0  0  0  0  0  0  0  0  0  0  0
   -2.1029    3.7500    0.0000 C   0  0  0  0  0  0  0  0  0  0  0  0
   -2.1029    2.2500    0.0000 F   0  0  0  0  0  0  0  0  0  0  0  0
   -2.1029    5.2500    0.0000 F   0  0  0  0  0  0  0  0  0  0  0  0
   -3.6029    3.7500    0.0000 C   0  0  0  0  0  0  0  0  0  0  0  0
   -3.6029    5.2500    0.0000 F   0  0  0  0  0  0  0  0  0  0  0  0
   -3.6029    2.2500    0.0000 F   0  0  0  0  0  0  0  0  0  0  0  0
   -5.1029    3.7500    0.0000 C   0  0  0  0  0  0  0  0  0  0  0  0
   -5.1029    2.2500    0.0000 F   0  0  0  0  0  0  0  0  0  0  0  0
   -5.1029    5.2500    0.0000 F   0  0  0  0  0  0  0  0  0  0  0  0
   -6.6029    3.7500    0.0000 C   0  0  0  0  0  0  0  0  0  0  0  0
   -8.1029    3.7500    0.0000 F   0  0  0  0  0  0  0  0  0  0  0  0
   -6.6029    5.2500    0.0000 F   0  0  0  0  0  0  0  0  0  0  0  0
   -6.6029    2.2500    0.0000 F   0  0  0  0  0  0  0  0  0  0  0  0
  1  2  1  0
  2  3  1  0
  3  4  1  0
  4  5  1  0
  5  6  1  0
  6  7  1  0
  7  8  1  0
  8  9  1  0
  9 10  1  0
 10 11  1  0
 11 12  1  0
 12 13  2  0
 12 14  2  0
 12 15  1  0
  4 16  1  0
 16 17  2  0
 16 18  2  0
 16 19  1  0
 19 20  1  0
 19 21  1  0
 19 22  1  0
 22 23  1  0
 22 24  1  0
 22 25  1  0
 25 26  1  0
 25 27  1  0
 25 28  1  0
 28 29  1  0
 28 30  1  0
 28 31  1  0
 31 32  1  0
 31 33  1  0
 31 34  1  0
 34 35  1  0
 34 36  1  0
 34 37  1  0
 37 38  1  0
 37 39  1  0
 37 40  1  0
 40 41  1  0
 40 42  1  0
 40 43  1  0
M  END
$$$$

     RDKit          2D

 33 32  0  0  0  0  0  0  0  0999 V2000
    0.0000    0.0000    0.0000 C   0  0  0  0  0  0  0  0  0  0  0  0
    1.2990    0.7500    0.0000 C   0  0  0  0  0  0  0  0  0  0  0  0
    2.5981   -0.0000    0.0000 N   0  0  0  0  0  0  0  0  0  0  0  0
    3.8971    0.7500    0.0000 C   0  0  0  0  0  0  0  0  0  0  0  0
    5.1962   -0.0000    0.0000 C   0  0  0  0  0  0  0  0  0  0  0  0
    6.4952    0.7500    0.0000 O   0  0  0  0  0  0  0  0  0  0  0  0
    7.7942   -0.0000    0.0000 C   0  0  0  0  0  0  0  0  0  0  0  0
    9.0933    0.7500    0.0000 C   0  0  0  0  0  0  0  0  0  0  0  0
   10.3923   -0.0000    0.0000 O   0  0  0  0  0  0  0  0  0  0  0  0
    2.5981   -1.5000    0.0000 C   0  0  0  0  0  0  0  0  0  0  0  0
    1.2990   -2.2500    0.0000 O   0  0  0  0  0  0  0  0  0  0  0  0
    3.8971   -2.2500    0.0000 C   0  0  0  0  0  0  0  0  0  0  0  0
    3.1471   -3.5490    0.0000 F   0  0  0  0  0  0  0  0  0  0  0  0
    4.6471   -0.9510    0.0000 F   0  0  0  0  0  0  0  0  0  0  0  0
    5.1962   -3.0000    0.0000 C   0  0  0  0  0  0  0  0  0  0  0  0
    4.4462   -4.2990    0.0000 F   0  0  0  0  0  0  0  0  0  0  0  0
    5.9462   -1.7010    0.0000 F   0  0  0  0  0  0  0  0  0  0  0  0
    6.4952   -3.7500    0.0000 C   0  0  0  0  0  0  0  0  0  0  0  0
    7.2452   -2.4510    0.0000 F   0  0  0  0  0  0  0  0  0  0  0  0
    5.7452   -5.0490    0.0000 F   0  0  0  0  0  0  0  0  0  0  0  0
    7.7942   -4.5000    0.0000 C   0  0  0  0  0  0  0  0  0  0  0  0
    7.0442   -5.7990    0.0000 F   0  0  0  0  0  0  0  0  0  0  0  0
    8.5442   -3.2010    0.0000 F   0  0  0  0  0  0  0  0  0  0  0  0
    9.0933   -5.2500    0.0000 C   0  0  0  0  0  0  0  0  0  0  0  0
    9.8433   -3.9510    0.0000 F   0  0  0  0  0  0  0  0  0  0  0  0
    8.3433   -6.5490    0.0000 F   0  0  0  0  0  0  0  0  0  0  0  0
   10.3923   -6.0000    0.0000 C   0  0  0  0  0  0  0  0  0  0  0  0
    9.6423   -7.2990    0.0000 F   0  0  0  0  0  0  0  0  0  0  0  0
   11.1423   -4.7010    0.0000 F   0  0  0  0  0  0  0  0  0  0  0  0
   11.6913   -6.7500    0.0000 C   0  0  0  0  0  0  0  0  0  0  0  0
   12.9904   -7.5000    0.0000 F   0  0  0  0  0  0  0  0  0  0  0  0
   12.4413   -5.4510    0.0000 F   0  0  0  0  0  0  0  0  0  0  0  0
   10.9413   -8.0490    0.0000 F   0  0  0  0  0  0  0  0  0  0  0  0
  1  2  1  0
  2  3  1  0
  3  4  1  0
  4  5  1  0
  5  6  1  0
  6  7  1  0
  7  8  1  0
  8  9  1  0
  3 10  1  0
 10 11  2  0
 10 12  1  0
 12 13  1  0
 12 14  1  0
 12 15  1  0
 15 16  1  0
 15 17  1  0
 15 18  1  0
 18 19  1  0
 18 20  1  0
 18 21  1  0
 21 22  1  0
 21 23  1  0
 21 24  1  0
 24 25  1  0
 24 26  1  0
 24 27  1  0
 27 28  1  0
 27 29  1  0
 27 30  1  0
 30 31  1  0
 30 32  1  0
 30 33  1  0
M  END
$$$$

     RDKit          2D

 38 37  0  0  0  0  0  0  0  0999 V2000
    0.0000    0.0000    0.0000 C   0  0  0  0  0  0  0  0  0  0  0  0
    1.2990    0.7500    0.0000 C   0  0  0  0  0  0  0  0  0  0  0  0
    2.5981   -0.0000    0.0000 N   0  0  0  0  0  0  0  0  0  0  0  0
    3.8971    0.7500    0.0000 C   0  0  0  0  0  0  0  0  0  0  0  0
    5.1962   -0.0000    0.0000 C   0  0  0  0  0  0  0  0  0  0  0  0
    5.1962   -1.5000    0.0000 O   0  0  0  0  0  0  0  0  0  0  0  0
    6.4952    0.7500    0.0000 O   0  0  0  0  0  0  0  0  0  0  0  0
    7.7942   -0.0000    0.0000 C   0  0  0  0  0  0  0  0  0  0  0  0
    9.0933    0.7500    0.0000 C   0  0  0  0  0  0  0  0  0  0  0  0
   10.3923   -0.0000    0.0000 O   0  0  0  0  0  0  0  0  0  0  0  0
    2.5981   -1.5000    0.0000 S   0  0  0  0  0  0  0  0  0  0  0  0
    1.8069   -1.4028    0.0000 O   0  0  0  0  0  0  0  0  0  0  0  0
    4.0981   -1.5000    0.0000 O   0  0  0  0  0  0  0  0  0  0  0  0
    2.5981   -3.0000    0.0000 C   0  0  0  0  0  0  0  0  0  0  0  0
    4.0981   -3.0000    0.0000 F   0  0  0  0  0  0  0  0  0  0  0  0
    2.5981   -4.5000    0.0000 F   0  0  0  0  0  0  0  0  0  0  0  0
    1.0981   -3.0000    0.0000 C   0  0  0  0  0  0  0  0  0  0  0  0
    0.9901   -2.1209    0.0000 F   0  0  0  0  0  0  0  0  0  0  0  0
    1.0981   -4.5000    0.0000 F   0  0  0  0  0  0  0  0  0  0  0  0
   -0.4019   -3.0000    0.0000 C   0  0  0  0  0  0  0  0  0  0  0  0
   -0.4019   -1.5000    0.0000 F   0  0  0  0  0  0  0  0  0  0  0  0
   -0.4019   -4.5000    0.0000 F   0  0  0  0  0  0  0  0  0  0  0  0
   -1.9019   -3.0000    0.0000 C   0  0  0  0  0  0  0  0  0  0  0  0
   -1.9019   -4.5000    0.0000 F   0  0  0  0  0  0  0  0  0  0  0  0
   -1.9019   -1.5000    0.0000 F   0  0  0  0  0  0  0  0  0  0  0  0
   -3.4019   -3.0000    0.0000 C   0  0  0  0  0  0  0  0  0  0  0  0
   -3.4019   -4.5000    0.0000 F   0  0  0  0  0  0  0  0  0  0  0  0
   -3.4019   -1.5000    0.0000 F   0  0  0  0  0  0  0  0  0  0  0  0
   -4.9019   -3.0000    0.0000 C   0  0  0  0  0  0  0  0  0  0  0  0
   -4.9019   -1.5000    0.0000 F   0  0  0  0  0  0  0  0  0  0  0  0
   -4.9019   -4.5000    0.0000 F   0  0  0  0  0  0  0  0  0  0  0  0
   -6.4019   -3.0000    0.0000 C   0  0  0  0  0  0  0  0  0  0  0  0
   -6.4019   -4.5000    0.0000 F   0  0  0  0  0  0  0  0  0  0  0  0
   -6.4019   -1.5000    0.0000 F   0  0  0  0  0  0  0  0  0  0  0  0
   -7.9019   -3.0000    0.0000 C   0  0  0  0  0  0  0  0  0  0  0  0
   -9.4019   -3.0000    0.0000 F   0  0  0  0  0  0  0  0  0  0  0  0
   -7.9019   -1.5000    0.0000 F   0  0  0  0  0  0  0  0  0  0  0  0
   -7.9019   -4.5000    0.0000 F   0  0  0  0  0  0  0  0  0  0  0  0
  1  2  1  0
  2  3  1  0
  3  4  1  0
  4  5  1  0
  5  6  2  0
  5  7  1  0
  7  8  1  0
  8  9  1  0
  9 10  1  0
  3 11  1  0
 11 12  2  0
 11 13  2  0
 11 14  1  0
 14 15  1  0
 14 16  1  0
 14 17  1  0
 17 18  1  0
 17 19  1  0
 17 20  1  0
 20 21  1  0
 20 22  1  0
 20 23  1  0
 23 24  1  0
 23 25  1  0
 23 26  1  0
 26 27  1  0
 26 28  1  0
 26 29  1  0
 29 30  1  0
 29 31  1  0
 29 32  1  0
 32 33  1  0
 32 34  1  0
 32 35  1  0
 35 36  1  0
 35 37  1  0
 35 38  1  0
M  END
$$$$

     RDKit          2D

 43 42  0  0  0  0  0  0  0  0999 V2000
   -3.3481    1.2990    0.0000 O   0  0  0  0  0  0  0  0  0  0  0  0
   -2.5981    0.0000    0.0000 P   0  0  0  0  0  0  0  0  0  0  0  0
   -1.8481   -1.2990    0.0000 O   0  0  0  0  0  0  0  0  0  0  0  0
   -3.8971   -0.7500    0.0000 O   0  0  0  0  0  0  0  0  0  0  0  0
   -1.2990    0.7500    0.0000 O   0  0  0  0  0  0  0  0  0  0  0  0
    0.0000    0.0000    0.0000 C   0  0  0  0  0  0  0  0  0  0  0  0
    1.2990    0.7500    0.0000 C   0  0  0  0  0  0  0  0  0  0  0  0
    2.5981    1.5000    0.0000 C   0  0  0  0  0  0  0  0  0  0  0  0
    2.5981    3.0000    0.0000 O   0  0  0  0  0  0  0  0  0  0  0  0
    0.5490    2.0490    0.0000 C   0  0  0  0  0  0  0  0  0  0  0  0
    1.2990    3.3481    0.0000 S   0  0  0  0  0  0  0  0  0  0  0  0
    0.5490    4.6471    0.0000 C   0  0  0  0  0  0  0  0  0  0  0  0
    1.2990    5.9462    0.0000 C   0  0  0  0  0  0  0  0  0  0  0  0
    0.5490    7.2452    0.0000 C   0  0  0  0  0  0  0  0  0  0  0  0
    1.8481    7.9952    0.0000 F   0  0  0  0  0  0  0  0  0  0  0  0
   -0.7500    6.4952    0.0000 F   0  0  0  0  0  0  0  0  0  0  0  0
   -0.2010    8.5442    0.0000 C   0  0  0  0  0  0  0  0  0  0  0  0
   -1.5000    7.7942    0.0000 F   0  0  0  0  0  0  0  0  0  0  0  0
    1.0981    9.2942    0.0000 F   0  0  0  0  0  0  0  0  0  0  0  0
   -0.9510    9.8433    0.0000 C   0  0  0  0  0  0  0  0  0  0  0  0
    0.3481   10.5933    0.0000 F   0  0  0  0  0  0  0  0  0  0  0  0
   -2.2500    9.0933    0.0000 F   0  0  0  0  0  0  0  0  0  0  0  0
   -1.7010   11.1423    0.0000 C   0  0  0  0  0  0  0  0  0  0  0  0
   -2.4510   12.4413    0.0000 F   0  0  0  0  0  0  0  0  0  0  0  0
   -3.0000   10.3923    0.0000 F   0  0  0  0  0  0  0  0  0  0  0  0
   -0.4019   11.8923    0.0000 F   0  0  0  0  0  0  0  0  0  0  0  0
    2.0490   -0.5490    0.0000 C   0  0  0  0  0  0  0  0  0  0  0  0
    3.5490   -0.5490    0.0000 S   0  0  0  0  0  0  0  0  0  0  0  0
    4.2990   -1.8481    0.0000 C   0  0  0  0  0  0  0  0  0  0  0  0
    5.7990   -1.8481    0.0000 C   0  0  0  0  0  0  0  0  0  0  0  0
    6.5490   -3.1471    0.0000 C   0  0  0  0  0  0  0  0  0  0  0  0
    7.8481   -2.3971    0.0000 F   0  0  0  0  0  0  0  0  0  0  0  0
    5.2500   -3.8971    0.0000 F   0  0  0  0  0  0  0  0  0  0  0  0
    7.2990   -4.4462    0.0000 C   0  0  0  0  0  0  0  0  0  0  0  0
    6.0000   -5.1962    0.0000 F   0  0  0  0  0  0  0  0  0  0  0  0
    8.5981   -3.6962    0.0000 F   0  0  0  0  0  0  0  0  0  0  0  0
    8.0490   -5.7452    0.0000 C   0  0  0  0  0  0  0  0  0  0  0  0
    9.3481   -4.9952    0.0000 F   0  0  0  0  0  0  0  0  0  0  0  0
    6.7500   -6.4952    0.0000 F   0  0  0  0  0  0  0  0  0  0  0  0
    8.7990   -7.0442    0.0000 C   0  0  0  0  0  0  0  0  0  0  0  0
    9.5490   -8.3433    0.0000 F   0  0  0  0  0  0  0  0  0  0  0  0
    7.5000   -7.7942    0.0000 F   0  0  0  0  0  0  0  0  0  0  0  0
   10.0981   -6.2942    0.0000 F   0  0  0  0  0  0  0  0  0  0  0  0
  1  2  2  0
  2  3  1  0
  2  4  1  0
  2  5  1  0
  5  6  1  0
  6  7  1  0
  7  8  1  0
  8  9  1  0
  7 10  1  0
 10 11  1  0
 11 12  1  0
 12 13  1  0
 13 14  1  0
 14 15  1  0
 14 16  1  0
 14 17  1  0
 17 18  1  0
 17 19  1  0
 17 20  1  0
 20 21  1  0
 20 22  1  0
 20 23  1  0
 23 24  1  0
 23 25  1  0
 23 26  1  0
  7 27  1  0
 27 28  1  0
 28 29  1  0
 29 30  1  0
 30 31  1  0
 31 32  1  0
 31 33  1  0
 31 34  1  0
 34 35  1  0
 34 36  1  0
 34 37  1  0
 37 38  1  0
 37 39  1  0
 37 40  1  0
 40 41  1  0
 40 42  1  0
 40 43  1  0
M  END
$$$$

     RDKit          2D

 40 39  0  0  0  0  0  0  0  0999 V2000
   -1.2990    0.7500    0.0000 O   0  0  0  0  0  0  0  0  0  0  0  0
    0.0000    0.0000    0.0000 C   0  0  0  0  0  0  0  0  0  0  0  0
    1.2990    0.7500    0.0000 C   0  0  0  0  0  0  0  0  0  0  0  0
    2.5981   -0.0000    0.0000 O   0  0  0  0  0  0  0  0  0  0  0  0
    3.8971    0.7500    0.0000 C   0  0  0  0  0  0  0  0  0  0  0  0
    5.1962   -0.0000    0.0000 C   0  0  0  0  0  0  0  0  0  0  0  0
    5.1962   -1.5000    0.0000 O   0  0  0  0  0  0  0  0  0  0  0  0
    6.4952    0.7500    0.0000 C   0  0  0  0  0  0  0  0  0  0  0  0
    7.7942   -0.0000    0.0000 C   0  0  0  0  0  0  0  0  0  0  0  0
    9.0933    0.7500    0.0000 C   0  0  0  0  0  0  0  0  0  0  0  0
    9.8433   -0.5490    0.0000 F   0  0  0  0  0  0  0  0  0  0  0  0
    8.3433    2.0490    0.0000 F   0  0  0  0  0  0  0  0  0  0  0  0
   10.3923    1.5000    0.0000 C   0  0  0  0  0  0  0  0  0  0  0  0
    9.6423    2.7990    0.0000 F   0  0  0  0  0  0  0  0  0  0  0  0
   11.1423    0.2010    0.0000 F   0  0  0  0  0  0  0  0  0  0  0  0
   11.6913    2.2500    0.0000 C   0  0  0  0  0  0  0  0  0  0  0  0
   12.4413    0.9510    0.0000 F   0  0  0  0  0  0  0  0  0  0  0  0
   10.9413    3.5490    0.0000 F   0  0  0  0  0  0  0  0  0  0  0  0
   12.9904    3.0000    0.0000 C   0  0  0  0  0  0  0  0  0  0  0  0
   12.2404    4.2990    0.0000 F   0  0  0  0  0  0  0  0  0  0  0  0
   13.7404    1.7010    0.0000 F   0  0  0  0  0  0  0  0  0  0  0  0
   14.2894    3.7500    0.0000 C   0  0  0  0  0  0  0  0  0  0  0  0
   13.5394    5.0490    0.0000 F   0  0  0  0  0  0  0  0  0  0  0  0
   15.0394    2.4510    0.0000 F   0  0  0  0  0  0  0  0  0  0  0  0
   15.5885    4.5000    0.0000 C   0  0  0  0  0  0  0  0  0  0  0  0
   16.3385    3.2010    0.0000 F   0  0  0  0  0  0  0  0  0  0  0  0
   14.8385    5.7990    0.0000 F   0  0  0  0  0  0  0  0  0  0  0  0
   16.8875    5.2500    0.0000 C   0  0  0  0  0  0  0  0  0  0  0  0
   16.3544    5.9574    0.0000 F   0  0  0  0  0  0  0  0  0  0  0  0
   17.6375    3.9510    0.0000 F   0  0  0  0  0  0  0  0  0  0  0  0
   18.1865    6.0000    0.0000 C   0  0  0  0  0  0  0  0  0  0  0  0
   18.9365    4.7010    0.0000 F   0  0  0  0  0  0  0  0  0  0  0  0
   19.4856    6.7500    0.0000 C   0  0  0  0  0  0  0  0  0  0  0  0
   20.7846    7.5000    0.0000 F   0  0  0  0  0  0  0  0  0  0  0  0
   20.2356    5.4510    0.0000 F   0  0  0  0  0  0  0  0  0  0  0  0
   19.1395    7.5653    0.0000 F   0  0  0  0  0  0  0  0  0  0  0  0
   17.4365    7.2990    0.0000 C   0  0  0  0  0  0  0  0  0  0  0  0
   16.6865    8.5981    0.0000 F   0  0  0  0  0  0  0  0  0  0  0  0
   18.1439    7.8321    0.0000 F   0  0  0  0  0  0  0  0  0  0  0  0
   16.6212    6.9530    0.0000 F   0  0  0  0  0  0  0  0  0  0  0  0
  1  2  1  0
  2  3  1  0
  3  4  1  0
  4  5  1  0
  5  6  1  0
  6  7  1  0
  6  8  1  0
  8  9  1  0
  9 10  1  0
 10 11  1  0
 10 12  1  0
 10 13  1  0
 13 14  1  0
 13 15  1  0
 13 16  1  0
 16 17  1  0
 16 18  1  0
 16 19  1  0
 19 20  1  0
 19 21  1  0
 19 22  1  0
 22 23  1  0
 22 24  1  0
 22 25  1  0
 25 26  1  0
 25 27  1  0
 25 28  1  0
 28 29  1  0
 28 30  1  0
 28 31  1  0
 31 32  1  0
 31 33  1  0
 33 34  1  0
 33 35  1  0
 33 36  1  0
 31 37  1  0
 37 38  1  0
 37 39  1  0
 37 40  1  0
M  END
$$$$

     RDKit          2D

 45 43  0  0  0  0  0  0  0  0999 V2000
    0.0000    0.0000    0.0000 C   0  0  0  0  0  0  0  0  0  0  0  0
    1.2990    0.7500    0.0000 N   0  0  0  0  0  0  0  0  0  0  0  0
    2.5981   -0.0000    0.0000 C   0  0  0  0  0  0  0  0  0  0  0  0
    3.8971    0.7500    0.0000 C   0  0  0  0  0  0  0  0  0  0  0  0
    5.1962   -0.0000    0.0000 O   0  0  0  0  0  0  0  0  0  0  0  0
    6.4952    0.7500    0.0000 C   0  0  0  0  0  0  0  0  0  0  0  0
    7.7942   -0.0000    0.0000 C   0  0  0  0  0  0  0  0  0  0  0  0
    9.0933    0.7500    0.0000 O   0  0  0  0  0  0  0  0  0  0  0  0
   10.3923   -0.0000    0.0000 C   0  0  0  0  0  0  0  0  0  0  0  0
   11.6913    0.7500    0.0000 C   0  0  0  0  0  0  0  0  0  0  0  0
   12.9904   -0.0000    0.0000 C   0  0  0  0  0  0  0  0  0  0  0  0
   14.2894    0.7500    0.0000 C   0  0  0  0  0  0  0  0  0  0  0  0
   15.5885   -0.0000    0.0000 S   0  0  0  0  0  0  0  0  0  0  0  0
   16.3385    1.2990    0.0000 O   0  0  0  0  0  0  0  0  0  0  0  0
   14.8385   -1.2990    0.0000 O   0  0  0  0  0  0  0  0  0  0  0  0
   16.8875   -0.7500    0.0000 O   0  0  0  0  0  0  0  0  0  0  0  0
    1.2990    2.2500    0.0000 S   0  0  0  0  0  0  0  0  0  0  0  0
    0.5078    2.1528    0.0000 O   0  0  0  0  0  0  0  0  0  0  0  0
    2.7990    2.2500    0.0000 O   0  0  0  0  0  0  0  0  0  0  0  0
    1.2990    3.7500    0.0000 C   0  0  0  0  0  0  0  0  0  0  0  0
    2.7990    3.7500    0.0000 F   0  0  0  0  0  0  0  0  0  0  0  0
    1.2990    5.2500    0.0000 F   0  0  0  0  0  0  0  0  0  0  0  0
   -0.2010    3.7500    0.0000 C   0  0  0  0  0  0  0  0  0  0  0  0
   -0.3089    2.8709    0.0000 F   0  0  0  0  0  0  0  0  0  0  0  0
   -0.2010    5.2500    0.0000 F   0  0  0  0  0  0  0  0  0  0  0  0
   -1.7010    3.7500    0.0000 C   0  0  0  0  0  0  0  0  0  0  0  0
   -1.7010    2.2500    0.0000 F   0  0  0  0  0  0  0  0  0  0  0  0
   -1.7010    5.2500    0.0000 F   0  0  0  0  0  0  0  0  0  0  0  0
   -3.2010    3.7500    0.0000 C   0  0  0  0  0  0  0  0  0  0  0  0
   -3.2010    5.2500    0.0000 F   0  0  0  0  0  0  0  0  0  0  0  0
   -3.2010    2.2500    0.0000 F   0  0  0  0  0  0  0  0  0  0  0  0
   -4.7010    3.7500    0.0000 C   0  0  0  0  0  0  0  0  0  0  0  0
   -4.7010    5.2500    0.0000 F   0  0  0  0  0  0  0  0  0  0  0  0
   -4.7010    2.2500    0.0000 F   0  0  0  0  0  0  0  0  0  0  0  0
   -6.2010    3.7500    0.0000 C   0  0  0  0  0  0  0  0  0  0  0  0
   -6.2010    2.2500    0.0000 F   0  0  0  0  0  0  0  0  0  0  0  0
   -6.2010    5.2500    0.0000 F   0  0  0  0  0  0  0  0  0  0  0  0
   -7.7010    3.7500    0.0000 C   0  0  0  0  0  0  0  0  0  0  0  0
   -7.7010    5.2500    0.0000 F   0  0  0  0  0  0  0  0  0  0  0  0
   -7.7010    2.2500    0.0000 F   0  0  0  0  0  0  0  0  0  0  0  0
   -9.2010    3.7500    0.0000 C   0  0  0  0  0  0  0  0  0  0  0  0
  -10.7010    3.7500    0.0000 F   0  0  0  0  0  0  0  0  0  0  0  0
   -9.2010    2.2500    0.0000 F   0  0  0  0  0  0  0  0  0  0  0  0
   -9.2010    5.2500    0.0000 F   0  0  0  0  0  0  0  0  0  0  0  0
    0.0000    6.2500    0.0000 Na  0  0  0  0  0 15  0  0  0  0  0  0
  1  2  1  0
  2  3  1  0
  3  4  1  0
  4  5  1  0
  5  6  1  0
  6  7  1  0
  7  8  1  0
  8  9  1  0
  9 10  1  0
 10 11  1  0
 11 12  1  0
 12 13  1  0
 13 14  2  0
 13 15  2  0
 13 16  1  0
  2 17  1  0
 17 18  2  0
 17 19  2  0
 17 20  1  0
 20 21  1  0
 20 22  1  0
 20 23  1  0
 23 24  1  0
 23 25  1  0
 23 26  1  0
 26 27  1  0
 26 28  1  0
 26 29  1  0
 29 30  1  0
 29 31  1  0
 29 32  1  0
 32 33  1  0
 32 34  1  0
 32 35  1  0
 35 36  1  0
 35 37  1  0
 35 38  1  0
 38 39  1  0
 38 40  1  0
 38 41  1  0
 41 42  1  0
 41 43  1  0
 41 44  1  0
M  CHG  2  16  -1  45   1
M  END
$$$$

     RDKit          2D

 22 22  0  0  0  0  0  0  0  0999 V2000
    2.3660    0.0000    0.0000 C   0  0  0  0  0  0  0  0  0  0  0  0
    3.1160   -1.2990    0.0000 N   0  0  0  0  0  0  0  0  0  0  0  0
    4.6160   -1.2990    0.0000 C   0  0  0  0  0  0  0  0  0  0  0  0
    5.3660   -2.5981    0.0000 C   0  0  0  0  0  0  0  0  0  0  0  0
    6.6651   -3.3481    0.0000 C   0  0  0  0  0  0  0  0  0  0  0  0
    5.3660   -4.0981    0.0000 O   0  0  0  0  0  0  0  0  0  0  0  0
    2.3660   -2.5981    0.0000 S   0  0  0  0  0  0  0  0  0  0  0  0
    3.6651   -3.3481    0.0000 O   0  0  0  0  0  0  0  0  0  0  0  0
    1.7294   -2.1183    0.0000 O   0  0  0  0  0  0  0  0  0  0  0  0
    1.6160   -3.8971    0.0000 C   0  0  0  0  0  0  0  0  0  0  0  0
    2.9151   -4.6471    0.0000 F   0  0  0  0  0  0  0  0  0  0  0  0
    0.8660   -5.1962    0.0000 F   0  0  0  0  0  0  0  0  0  0  0  0
    0.3170   -3.1471    0.0000 C   0  0  0  0  0  0  0  0  0  0  0  0
   -0.4330   -4.4462    0.0000 F   0  0  0  0  0  0  0  0  0  0  0  0
    0.6630   -2.3318    0.0000 F   0  0  0  0  0  0  0  0  0  0  0  0
   -0.9821   -2.3971    0.0000 C   0  0  0  0  0  0  0  0  0  0  0  0
   -0.2321   -1.0981    0.0000 F   0  0  0  0  0  0  0  0  0  0  0  0
   -1.7321   -3.6962    0.0000 F   0  0  0  0  0  0  0  0  0  0  0  0
   -2.2811   -1.6471    0.0000 C   0  0  0  0  0  0  0  0  0  0  0  0
   -3.5801   -0.8971    0.0000 F   0  0  0  0  0  0  0  0  0  0  0  0
   -1.5311   -0.3481    0.0000 F   0  0  0  0  0  0  0  0  0  0  0  0
   -3.0311   -2.9462    0.0000 F   0  0  0  0  0  0  0  0  0  0  0  0
  1  2  1  0
  2  3  1  0
  3  4  1  0
  4  5  1  0
  5  6  1  0
  2  7  1  0
  7  8  2  0
  7  9  2  0
  7 10  1  0
 10 11  1  0
 10 12  1  0
 10 13  1  0
 13 14  1  0
 13 15  1  0
 13 16  1  0
 16 17  1  0
 16 18  1  0
 16 19  1  0
 19 20  1  0
 19 21  1  0
 19 22  1  0
  6  4  1  0
M  END
$$$$

     RDKit          2D

 18 17  0  0  0  0  0  0  0  0999 V2000
    1.2990   -2.2500    0.0000 C   0  0  0  0  0  0  0  0  0  0  0  0
    2.5981   -1.5000    0.0000 C   0  0  0  0  0  0  0  0  0  0  0  0
    3.8971   -2.2500    0.0000 O   0  0  0  0  0  0  0  0  0  0  0  0
    2.5981   -0.0000    0.0000 O   0  0  0  0  0  0  0  0  0  0  0  0
    3.8971    0.7500    0.0000 C   0  0  0  0  0  0  0  0  0  0  0  0
    5.1962   -0.0000    0.0000 C   0  0  0  0  0  0  0  0  0  0  0  0
    6.4952    0.7500    0.0000 C   0  0  0  0  0  0  0  0  0  0  0  0
    7.7942    1.5000    0.0000 F   0  0  0  0  0  0  0  0  0  0  0  0
    7.2452   -0.5490    0.0000 F   0  0  0  0  0  0  0  0  0  0  0  0
    5.7452    2.0490    0.0000 F   0  0  0  0  0  0  0  0  0  0  0  0
    3.8971    2.2500    0.0000 C   0  0  0  0  0  0  0  0  0  0  0  0
    2.5981    3.0000    0.0000 N   0  0  0  0  0  0  0  0  0  0  0  0
    1.8481    1.7010    0.0000 C   0  0  0  0  0  0  0  0  0  0  0  0
    3.3481    4.2990    0.0000 C   0  0  0  0  0  0  0  0  0  0  0  0
    1.2990    3.7500    0.0000 C   0  0  0  0  0  0  0  0  0  0  0  0
    1.2990    5.2500    0.0000 C   0  0  0  0  0  0  0  0  0  0  0  0
    2.5981    6.0000    0.0000 O   0  0  0  0  0  0  0  0  0  0  0  0
    0.0000    6.0000    0.0000 O   0  0  0  0  0  0  0  0  0  0  0  0
  1  2  1  0
  2  3  2  0
  2  4  1  0
  4  5  1  0
  5  6  1  0
  6  7  1  0
  7  8  1  0
  7  9  1  0
  7 10  1  0
  5 11  1  0
 11 12  1  0
 12 13  1  0
 12 14  1  0
 12 15  1  0
 15 16  1  0
 16 17  2  0
 16 18  1  0
M  CHG  2  12   1  18  -1
M  END
$$$$

     RDKit          2D

 33 28  0  0  0  0  0  0  0  0999 V2000
   -3.3481    1.2990    0.0000 O   0  0  0  0  0  0  0  0  0  0  0  0
   -2.5981    0.0000    0.0000 P   0  0  0  0  0  0  0  0  0  0  0  0
   -1.8481   -1.2990    0.0000 O   0  0  0  0  0  0  0  0  0  0  0  0
   -3.8971   -0.7500    0.0000 O   0  0  0  0  0  0  0  0  0  0  0  0
   -1.2990    0.7500    0.0000 O   0  0  0  0  0  0  0  0  0  0  0  0
    0.0000    0.0000    0.0000 C   0  0  0  0  0  0  0  0  0  0  0  0
    1.2990    0.7500    0.0000 C   0  0  0  0  0  0  0  0  0  0  0  0
    2.5981    1.5000    0.0000 C   0  0  0  0  0  0  0  0  0  0  0  0
    2.5981    3.0000    0.0000 O   0  0  0  0  0  0  0  0  0  0  0  0
    3.8971    3.7500    0.0000 P   0  0  0  0  0  0  0  0  0  0  0  0
    3.1471    5.0490    0.0000 O   0  0  0  0  0  0  0  0  0  0  0  0
    4.6471    2.4510    0.0000 O   0  0  0  0  0  0  0  0  0  0  0  0
    5.1962    4.5000    0.0000 O   0  0  0  0  0  0  0  0  0  0  0  0
    2.0490   -0.5490    0.0000 C   0  0  0  0  0  0  0  0  0  0  0  0
    3.5490   -0.5490    0.0000 S   0  0  0  0  0  0  0  0  0  0  0  0
    4.2990   -1.8481    0.0000 C   0  0  0  0  0  0  0  0  0  0  0  0
    5.7990   -1.8481    0.0000 C   0  0  0  0  0  0  0  0  0  0  0  0
    6.5490   -3.1471    0.0000 C   0  0  0  0  0  0  0  0  0  0  0  0
    7.2990   -4.4462    0.0000 F   0  0  0  0  0  0  0  0  0  0  0  0
    7.8481   -2.3971    0.0000 F   0  0  0  0  0  0  0  0  0  0  0  0
    5.2500   -3.8971    0.0000 F   0  0  0  0  0  0  0  0  0  0  0  0
    0.5490    2.0490    0.0000 C   0  0  0  0  0  0  0  0  0  0  0  0
    1.2990    3.3481    0.0000 S   0  0  0  0  0  0  0  0  0  0  0  0
    0.5490    4.6471    0.0000 C   0  0  0  0  0  0  0  0  0  0  0  0
    1.2990    5.9462    0.0000 C   0  0  0  0  0  0  0  0  0  0  0  0
    0.5490    7.2452    0.0000 C   0  0  0  0  0  0  0  0  0  0  0  0
   -0.2010    8.5442    0.0000 F   0  0  0  0  0  0  0  0  0  0  0  0
    1.8481    7.9952    0.0000 F   0  0  0  0  0  0  0  0  0  0  0  0
   -0.7500    6.4952    0.0000 F   0  0  0  0  0  0  0  0  0  0  0  0
    8.8481    0.0000    0.0000 N   0  0  0  0  0  0  0  0  0  0  0  0
    9.8481    0.0000    0.0000 N   0  0  0  0  0  0  0  0  0  0  0  0
    0.0000    9.5442    0.0000 N   0  0  0  0  0  0  0  0  0  0  0  0
   10.8481    0.0000    0.0000 N   0  0  0  0  0  0  0  0  0  0  0  0
  1  2  2  0
  2  3  1  0
  2  4  1  0
  2  5  1  0
  5  6  1  0
  6  7  1  0
  7  8  1  0
  8  9  1  0
  9 10  1  0
 10 11  2  0
 10 12  1  0
 10 13  1  0
  7 14  1  0
 14 15  1  0
 15 16  1  0
 16 17  1  0
 17 18  1  0
 18 19  1  0
 18 20  1  0
 18 21  1  0
  7 22  1  0
 22 23  1  0
 23 24  1  0
 24 25  1  0
 25 26  1  0
 26 27  1  0
 26 28  1  0
 26 29  1  0
M  CHG  8   3  -1   4  -1  12  -1  13  -1  30   1  31   1  32   1  33   1
M  END
$$$$

     RDKit          2D

 14 15  0  0  0  0  0  0  0  0999 V2000
   -1.7321    4.0981    0.0000 F   0  0  0  0  0  0  0  0  0  0  0  0
   -0.4330    3.3481    0.0000 C   0  0  0  0  0  0  0  0  0  0  0  0
    0.8660    2.5981    0.0000 F   0  0  0  0  0  0  0  0  0  0  0  0
   -1.1830    2.0490    0.0000 C   0  0  0  0  0  0  0  0  0  0  0  0
   -0.4330    0.7500    0.0000 C   0  0  0  0  0  0  0  0  0  0  0  0
    0.8660    0.0000    0.0000 C   0  0  0  0  0  0  0  0  0  0  0  0
   -0.4330   -0.7500    0.0000 O   0  0  0  0  0  0  0  0  0  0  0  0
    0.3170    4.6471    0.0000 C   0  0  0  0  0  0  0  0  0  0  0  0
   -0.9821    5.3971    0.0000 F   0  0  0  0  0  0  0  0  0  0  0  0
    1.6160    3.8971    0.0000 F   0  0  0  0  0  0  0  0  0  0  0  0
    1.0670    5.9462    0.0000 C   0  0  0  0  0  0  0  0  0  0  0  0
    0.3170    7.2452    0.0000 C   0  0  0  0  0  0  0  0  0  0  0  0
   -0.9821    7.9952    0.0000 C   0  0  0  0  0  0  0  0  0  0  0  0
    0.3170    8.7452    0.0000 O   0  0  0  0  0  0  0  0  0  0  0  0
  1  2  1  0
  2  3  1  0
  2  4  1  0
  4  5  1  0
  5  6  1  0
  6  7  1  0
  2  8  1  0
  8  9  1  0
  8 10  1  0
  8 11  1  0
 11 12  1  0
 12 13  1  0
 13 14  1  0
  7  5  1  0
 14 12  1  0
M  END
$$$$

     RDKit          2D

 25 25  0  0  0  0  0  0  0  0999 V2000
    3.7500    1.2990    0.0000 O   0  0  0  0  0  0  0  0  0  0  0  0
    3.0000    0.0000    0.0000 C   0  0  0  0  0  0  0  0  0  0  0  0
    3.7500   -1.2990    0.0000 O   0  0  0  0  0  0  0  0  0  0  0  0
    1.5000    0.0000    0.0000 C   0  0  0  0  0  0  0  0  0  0  0  0
    0.7500   -1.2990    0.0000 C   0  0  0  0  0  0  0  0  0  0  0  0
   -0.7500   -1.2990    0.0000 C   0  0  0  0  0  0  0  0  0  0  0  0
   -1.5000    0.0000    0.0000 C   0  0  0  0  0  0  0  0  0  0  0  0
   -3.0000    0.0000    0.0000 C   0  0  0  0  0  0  0  0  0  0  0  0
   -3.0000    1.5000    0.0000 F   0  0  0  0  0  0  0  0  0  0  0  0
   -3.0000   -1.5000    0.0000 F   0  0  0  0  0  0  0  0  0  0  0  0
   -4.5000    0.0000    0.0000 C   0  0  0  0  0  0  0  0  0  0  0  0
   -4.5000   -1.5000    0.0000 F   0  0  0  0  0  0  0  0  0  0  0  0
   -4.5000    1.5000    0.0000 F   0  0  0  0  0  0  0  0  0  0  0  0
   -6.0000    0.0000    0.0000 C   0  0  0  0  0  0  0  0  0  0  0  0
   -6.0000    1.5000    0.0000 F   0  0  0  0  0  0  0  0  0  0  0  0
   -6.0000   -1.5000    0.0000 F   0  0  0  0  0  0  0  0  0  0  0  0
   -7.5000    0.0000    0.0000 C   0  0  0  0  0  0  0  0  0  0  0  0
   -7.5000   -1.5000    0.0000 F   0  0  0  0  0  0  0  0  0  0  0  0
   -7.5000    1.5000    0.0000 F   0  0  0  0  0  0  0  0  0  0  0  0
   -9.0000    0.0000    0.0000 C   0  0  0  0  0  0  0  0  0  0  0  0
  -10.5000    0.0000    0.0000 F   0  0  0  0  0  0  0  0  0  0  0  0
   -9.0000    1.5000    0.0000 F   0  0  0  0  0  0  0  0  0  0  0  0
   -9.0000   -1.5000    0.0000 F   0  0  0  0  0  0  0  0  0  0  0  0
   -0.7500    1.2990    0.0000 C   0  0  0  0  0  0  0  0  0  0  0  0
    0.7500    1.2990    0.0000 C   0  0  0  0  0  0  0  0  0  0  0  0
  1  2  2  0
  2  3  1  0
  2  4  1  0
  4  5  2  0
  5  6  1  0
  6  7  2  0
  7  8  1  0
  8  9  1  0
  8 10  1  0
  8 11  1  0
 11 12  1  0
 11 13  1  0
 11 14  1  0
 14 15  1  0
 14 16  1  0
 14 17  1  0
 17 18  1  0
 17 19  1  0
 17 20  1  0
 20 21  1  0
 20 22  1  0
 20 23  1  0
  7 24  1  0
 24 25  2  0
 25  4  1  0
M  END
$$$$

     RDKit          2D

 17 17  0  0  0  0  0  0  0  0999 V2000
    6.5260   -1.2990    0.0000 N   0  0  0  0  0  0  0  0  0  0  0  0
    5.0260   -1.2990    0.0000 N   0  0  0  0  0  0  0  0  0  0  0  0
    3.5260   -1.2990    0.0000 N   0  0  0  0  0  0  0  0  0  0  0  0
    2.7760    0.0000    0.0000 C   0  0  0  0  0  0  0  0  0  0  0  0
    1.2760    0.0000    0.0000 C   0  0  0  0  0  0  0  0  0  0  0  0
    0.3943    1.2135    0.0000 C   0  0  0  0  0  0  0  0  0  0  0  0
   -1.0323    0.7500    0.0000 O   0  0  0  0  0  0  0  0  0  0  0  0
   -1.0323   -0.7500    0.0000 C   0  0  0  0  0  0  0  0  0  0  0  0
   -1.3442   -2.2172    0.0000 C   0  0  0  0  0  0  0  0  0  0  0  0
   -1.6560   -3.6844    0.0000 F   0  0  0  0  0  0  0  0  0  0  0  0
    0.1231   -2.5291    0.0000 F   0  0  0  0  0  0  0  0  0  0  0  0
   -2.1383   -2.1478    0.0000 F   0  0  0  0  0  0  0  0  0  0  0  0
   -2.5241   -0.5932    0.0000 C   0  0  0  0  0  0  0  0  0  0  0  0
   -4.0159   -0.4364    0.0000 F   0  0  0  0  0  0  0  0  0  0  0  0
   -2.7034   -1.3699    0.0000 F   0  0  0  0  0  0  0  0  0  0  0  0
   -2.3673    0.8986    0.0000 F   0  0  0  0  0  0  0  0  0  0  0  0
    0.3943   -1.2135    0.0000 O   0  0  0  0  0  0  0  0  0  0  0  0
  1  2  2  0
  2  3  2  0
  3  4  1  0
  4  5  1  0
  5  6  1  0
  6  7  1  0
  7  8  1  0
  8  9  1  0
  9 10  1  0
  9 11  1  0
  9 12  1  0
  8 13  1  0
 13 14  1  0
 13 15  1  0
 13 16  1  0
  8 17  1  0
 17  5  1  0
M  CHG  2   1  -1   2   1
M  END
$$$$

     RDKit          2D

 13 12  0  0  0  0  0  0  0  0999 V2000
    0.0000    0.0000    0.0000 C   0  0  0  0  0  0  0  0  0  0  0  0
    1.2990    0.7500    0.0000 C   0  0  0  0  0  0  0  0  0  0  0  0
    2.5981   -0.0000    0.0000 C   0  0  0  0  0  0  0  0  0  0  0  0
    3.8971    0.7500    0.0000 O   0  0  0  0  0  0  0  0  0  0  0  0
    5.1962   -0.0000    0.0000 C   0  0  0  0  0  0  0  0  0  0  0  0
    6.4952    0.7500    0.0000 C   0  0  0  0  0  0  0  0  0  0  0  0
    7.7942    1.5000    0.0000 F   0  0  0  0  0  0  0  0  0  0  0  0
    7.2452   -0.5490    0.0000 F   0  0  0  0  0  0  0  0  0  0  0  0
    5.7452    2.0490    0.0000 F   0  0  0  0  0  0  0  0  0  0  0  0
    5.1962   -1.5000    0.0000 C   0  0  0  0  0  0  0  0  0  0  0  0
    5.1962   -3.0000    0.0000 F   0  0  0  0  0  0  0  0  0  0  0  0
    6.6962   -1.5000    0.0000 F   0  0  0  0  0  0  0  0  0  0  0  0
    3.6962   -1.5000    0.0000 F   0  0  0  0  0  0  0  0  0  0  0  0
  1  2  2  0
  2  3  1  0
  3  4  1  0
  4  5  1  0
  5  6  1  0
  6  7  1  0
  6  8  1  0
  6  9  1  0
  5 10  1  0
 10 11  1  0
 10 12  1  0
 10 13  1  0
M  END
$$$$

     RDKit          2D

 13 13  0  0  0  0  0  0  0  0999 V2000
    6.3481   -1.2990    0.0000 F   0  0  0  0  0  0  0  0  0  0  0  0
    5.0490   -0.5490    0.0000 C   0  0  0  0  0  0  0  0  0  0  0  0
    5.0490    0.9510    0.0000 F   0  0  0  0  0  0  0  0  0  0  0  0
    3.7500   -1.2990    0.0000 C   0  0  0  0  0  0  0  0  0  0  0  0
    2.4510   -2.0490    0.0000 F   0  0  0  0  0  0  0  0  0  0  0  0
    4.5000   -2.5981    0.0000 F   0  0  0  0  0  0  0  0  0  0  0  0
    3.0000    0.0000    0.0000 P   0  0  0  0  0  0  0  0  0  0  0  0
    1.5000    0.0000    0.0000 C   0  0  0  0  0  0  0  0  0  0  0  0
    0.7500   -1.2990    0.0000 C   0  0  0  0  0  0  0  0  0  0  0  0
   -0.7500   -1.2990    0.0000 C   0  0  0  0  0  0  0  0  0  0  0  0
   -1.5000    0.0000    0.0000 C   0  0  0  0  0  0  0  0  0  0  0  0
   -0.7500    1.2990    0.0000 C   0  0  0  0  0  0  0  0  0  0  0  0
    0.7500    1.2990    0.0000 C   0  0  0  0  0  0  0  0  0  0  0  0
  1  2  1  0
  2  3  1  0
  2  4  1  0
  4  5  1  0
  4  6  1  0
  4  7  1  0
  7  8  1  0
  8  9  2  0
  9 10  1  0
 10 11  2  0
 11 12  1  0
 12 13  2  0
 13  8  1  0
M  END
$$$$

     RDKit          2D

 23 25  0  0  0  0  0  0  0  0999 V2000
    3.7500   -1.2990    0.0000 O   0  0  0  0  0  0  0  0  0  0  0  0
    3.0000   -2.5981    0.0000 C   0  0  0  0  0  0  0  0  0  0  0  0
    1.5000   -2.5981    0.0000 N   0  0  0  0  0  0  0  0  0  0  0  0
    0.7500   -1.2990    0.0000 C   0  0  0  0  0  0  0  0  0  0  0  0
    1.5000    0.0000    0.0000 C   0  0  0  0  0  0  0  0  0  0  0  0
    0.7500    1.2990    0.0000 C   0  0  0  0  0  0  0  0  0  0  0  0
   -0.7500    1.2990    0.0000 C   0  0  0  0  0  0  0  0  0  0  0  0
   -1.5000    0.0000    0.0000 C   0  0  0  0  0  0  0  0  0  0  0  0
   -0.7500   -1.2990    0.0000 C   0  0  0  0  0  0  0  0  0  0  0  0
   -1.5000   -2.5981    0.0000 S   0  0  0  0  0  0  0  0  0  0  0  0
   -0.7500   -3.8971    0.0000 C   0  0  0  0  0  0  0  0  0  0  0  0
   -1.5000   -5.1962    0.0000 C   0  0  0  0  0  0  0  0  0  0  0  0
   -0.7500   -6.4952    0.0000 C   0  0  0  0  0  0  0  0  0  0  0  0
    0.7500   -6.4952    0.0000 C   0  0  0  0  0  0  0  0  0  0  0  0
    1.5000   -5.1962    0.0000 C   0  0  0  0  0  0  0  0  0  0  0  0
    0.7500   -3.8971    0.0000 C   0  0  0  0  0  0  0  0  0  0  0  0
    3.7500   -3.8971    0.0000 C   0  0  0  0  0  0  0  0  0  0  0  0
    5.0490   -3.1471    0.0000 F   0  0  0  0  0  0  0  0  0  0  0  0
    2.4510   -4.6471    0.0000 F   0  0  0  0  0  0  0  0  0  0  0  0
    4.5000   -5.1962    0.0000 C   0  0  0  0  0  0  0  0  0  0  0  0
    5.2500   -6.4952    0.0000 F   0  0  0  0  0  0  0  0  0  0  0  0
    3.2010   -5.9462    0.0000 F   0  0  0  0  0  0  0  0  0  0  0  0
    5.7990   -4.4462    0.0000 F   0  0  0  0  0  0  0  0  0  0  0  0
  1  2  2  0
  2  3  1  0
  3  4  1  0
  4  5  2  0
  5  6  1  0
  6  7  2  0
  7  8  1  0
  8  9  2  0
  9 10  1  0
 10 11  1  0
 11 12  2  0
 12 13  1  0
 13 14  2  0
 14 15  1  0
 15 16  2  0
  2 17  1  0
 17 18  1  0
 17 19  1  0
 17 20  1  0
 20 21  1  0
 20 22  1  0
 20 23  1  0
 16  3  1  0
  9  4  1  0
 16 11  1  0
M  END
$$$$

     RDKit          2D

 16 15  0  0  0  0  0  0  0  0999 V2000
   -1.2990    0.7500    0.0000 F   0  0  0  0  0  0  0  0  0  0  0  0
    0.0000    0.0000    0.0000 C   0  0  0  0  0  0  0  0  0  0  0  0
   -0.0000   -1.5000    0.0000 F   0  0  0  0  0  0  0  0  0  0  0  0
    1.2990    0.7500    0.0000 C   0  0  0  0  0  0  0  0  0  0  0  0
    1.2990    2.2500    0.0000 F   0  0  0  0  0  0  0  0  0  0  0  0
    2.5981   -0.0000    0.0000 O   0  0  0  0  0  0  0  0  0  0  0  0
    3.8971    0.7500    0.0000 C   0  0  0  0  0  0  0  0  0  0  0  0
    3.1471    2.0490    0.0000 F   0  0  0  0  0  0  0  0  0  0  0  0
    4.6471   -0.5490    0.0000 F   0  0  0  0  0  0  0  0  0  0  0  0
    5.1962    1.5000    0.0000 C   0  0  0  0  0  0  0  0  0  0  0  0
    4.4462    2.7990    0.0000 F   0  0  0  0  0  0  0  0  0  0  0  0
    5.9462    0.2010    0.0000 F   0  0  0  0  0  0  0  0  0  0  0  0
    6.4952    2.2500    0.0000 C   0  0  0  0  0  0  0  0  0  0  0  0
    7.7942    3.0000    0.0000 F   0  0  0  0  0  0  0  0  0  0  0  0
    7.2452    0.9510    0.0000 F   0  0  0  0  0  0  0  0  0  0  0  0
    5.7452    3.5490    0.0000 F   0  0  0  0  0  0  0  0  0  0  0  0
  1  2  1  0
  2  3  1  0
  2  4  2  0
  4  5  1  0
  4  6  1  0
  6  7  1  0
  7  8  1  0
  7  9  1  0
  7 10  1  0
 10 11  1  0
 10 12  1  0
 10 13  1  0
 13 14  1  0
 13 15  1  0
 13 16  1  0
M  END
$$$$

     RDKit          2D

 15 14  0  0  0  0  0  0  0  0999 V2000
   -0.0000   -1.5000    0.0000 N   0  0  0  0  0  0  0  0  0  0  0  0
    0.0000    0.0000    0.0000 C   0  0  0  0  0  0  0  0  0  0  0  0
    0.0000    1.5000    0.0000 C   0  0  0  0  0  0  0  0  0  0  0  0
    1.5000    1.5000    0.0000 F   0  0  0  0  0  0  0  0  0  0  0  0
   -1.5000    1.5000    0.0000 F   0  0  0  0  0  0  0  0  0  0  0  0
    0.0000    3.0000    0.0000 C   0  0  0  0  0  0  0  0  0  0  0  0
   -1.5000    3.0000    0.0000 F   0  0  0  0  0  0  0  0  0  0  0  0
    1.5000    3.0000    0.0000 F   0  0  0  0  0  0  0  0  0  0  0  0
    0.0000    4.5000    0.0000 O   0  0  0  0  0  0  0  0  0  0  0  0
    1.2990    5.2500    0.0000 C   0  0  0  0  0  0  0  0  0  0  0  0
    2.0490    3.9510    0.0000 F   0  0  0  0  0  0  0  0  0  0  0  0
    0.5490    6.5490    0.0000 F   0  0  0  0  0  0  0  0  0  0  0  0
    2.5981    6.0000    0.0000 C   0  0  0  0  0  0  0  0  0  0  0  0
    3.8971    5.2500    0.0000 F   0  0  0  0  0  0  0  0  0  0  0  0
    2.5981    7.5000    0.0000 Cl  0  0  0  0  0  0  0  0  0  0  0  0
  1  2  3  0
  2  3  1  0
  3  4  1  0
  3  5  1  0
  3  6  1  0
  6  7  1  0
  6  8  1  0
  6  9  1  0
  9 10  1  0
 10 11  1  0
 10 12  1  0
 10 13  1  0
 13 14  1  0
 13 15  1  0
M  END
$$$$

     RDKit          2D

 10 10  0  0  0  0  0  0  0  0999 V2000
    2.1213    1.0607    0.0000 F   0  0  0  0  0  0  0  0  0  0  0  0
    1.0607    0.0000    0.0000 C   0  0  0  0  0  0  0  0  0  0  0  0
    2.1213   -1.0607    0.0000 F   0  0  0  0  0  0  0  0  0  0  0  0
   -0.0000   -1.0607    0.0000 C   0  0  0  0  0  0  0  0  0  0  0  0
   -1.0607    0.0000    0.0000 C   0  0  0  0  0  0  0  0  0  0  0  0
   -2.1213   -1.0607    0.0000 F   0  0  0  0  0  0  0  0  0  0  0  0
   -2.1213    1.0607    0.0000 F   0  0  0  0  0  0  0  0  0  0  0  0
    0.0000    1.0607    0.0000 C   0  0  0  0  0  0  0  0  0  0  0  0
   -1.0607    2.1213    0.0000 F   0  0  0  0  0  0  0  0  0  0  0  0
    1.0607    2.1213    0.0000 F   0  0  0  0  0  0  0  0  0  0  0  0
  1  2  1  0
  2  3  1  0
  2  4  1  0
  4  5  1  0
  5  6  1  0
  5  7  1  0
  5  8  1  0
  8  9  1  0
  8 10  1  0
  8  2  1  0
M  END
$$$$

     RDKit          2D

  9  8  0  0  0  0  0  0  0  0999 V2000
    0.0000    0.0000    0.0000 C   0  0  0  0  0  0  0  0  0  0  0  0
    1.2990    0.7500    0.0000 N   0  0  0  0  0  0  0  0  0  0  0  0
    2.5981   -0.0000    0.0000 C   0  0  0  0  0  0  0  0  0  0  0  0
    1.2990    2.2500    0.0000 C   0  0  0  0  0  0  0  0  0  0  0  0
   -0.2010    2.2500    0.0000 F   0  0  0  0  0  0  0  0  0  0  0  0
    2.7990    2.2500    0.0000 F   0  0  0  0  0  0  0  0  0  0  0  0
    1.2990    3.7500    0.0000 C   0  0  0  0  0  0  0  0  0  0  0  0
    0.0000    4.5000    0.0000 F   0  0  0  0  0  0  0  0  0  0  0  0
    2.5981    4.5000    0.0000 F   0  0  0  0  0  0  0  0  0  0  0  0
  1  2  1  0
  2  3  1  0
  2  4  1  0
  4  5  1  0
  4  6  1  0
  4  7  1  0
  7  8  1  0
  7  9  1  0
M  END
$$$$

     RDKit          2D

 42 40  0  0  0  0  0  0  0  0999 V2000
    0.0000    0.0000    0.0000 C   0  0  0  0  0  0  0  0  0  0  0  0
    1.2990    0.7500    0.0000 C   0  0  0  0  0  0  0  0  0  0  0  0
    2.5981   -0.0000    0.0000 C   0  0  0  0  0  0  0  0  0  0  0  0
    3.8971    0.7500    0.0000 C   0  0  0  0  0  0  0  0  0  0  0  0
    5.1962   -0.0000    0.0000 P   0  0  0  0  0  0  0  0  0  0  0  0
    6.4952   -0.7500    0.0000 C   0  0  0  0  0  0  0  0  0  0  0  0
    6.4952   -2.2500    0.0000 C   0  0  0  0  0  0  0  0  0  0  0  0
    7.7942   -3.0000    0.0000 C   0  0  0  0  0  0  0  0  0  0  0  0
    7.7942   -4.5000    0.0000 C   0  0  0  0  0  0  0  0  0  0  0  0
    5.9462    1.2990    0.0000 C   0  0  0  0  0  0  0  0  0  0  0  0
    7.4462    1.2990    0.0000 C   0  0  0  0  0  0  0  0  0  0  0  0
    8.1962    2.5981    0.0000 C   0  0  0  0  0  0  0  0  0  0  0  0
    9.6962    2.5981    0.0000 C   0  0  0  0  0  0  0  0  0  0  0  0
    4.4462   -1.2990    0.0000 C   0  0  0  0  0  0  0  0  0  0  0  0
    5.1962   -2.5981    0.0000 C   0  0  0  0  0  0  0  0  0  0  0  0
    4.4462   -3.8971    0.0000 C   0  0  0  0  0  0  0  0  0  0  0  0
    5.1962   -5.1962    0.0000 C   0  0  0  0  0  0  0  0  0  0  0  0
   -1.5000    5.0981    0.0000 F   0  0  0  0  0  0  0  0  0  0  0  0
    0.0000    5.0981    0.0000 C   0  0  0  0  0  0  0  0  0  0  0  0
    0.0000    3.5981    0.0000 F   0  0  0  0  0  0  0  0  0  0  0  0
   -0.3630    6.5535    0.0000 F   0  0  0  0  0  0  0  0  0  0  0  0
    1.5000    5.0981    0.0000 C   0  0  0  0  0  0  0  0  0  0  0  0
    2.9554    4.7351    0.0000 F   0  0  0  0  0  0  0  0  0  0  0  0
    1.5000    3.5981    0.0000 F   0  0  0  0  0  0  0  0  0  0  0  0
    1.5000    6.5981    0.0000 P   0  0  0  0  0  6  0  0  0  0  0  0
    0.8096    6.9967    0.0000 F   0  0  0  0  0  0  0  0  0  0  0  0
    1.0841    7.3801    0.0000 F   0  0  0  0  0  0  0  0  0  0  0  0
    0.0184    6.3635    0.0000 F   0  0  0  0  0  0  0  0  0  0  0  0
    2.7990    5.8481    0.0000 C   0  0  0  0  0  0  0  0  0  0  0  0
    2.3857    4.4062    0.0000 F   0  0  0  0  0  0  0  0  0  0  0  0
    4.0981    5.0981    0.0000 F   0  0  0  0  0  0  0  0  0  0  0  0
    3.5490    7.1471    0.0000 C   0  0  0  0  0  0  0  0  0  0  0  0
    4.4518    8.3450    0.0000 F   0  0  0  0  0  0  0  0  0  0  0  0
    4.8481    6.3971    0.0000 F   0  0  0  0  0  0  0  0  0  0  0  0
    2.9153    8.5067    0.0000 F   0  0  0  0  0  0  0  0  0  0  0  0
    2.7990    7.3481    0.0000 C   0  0  0  0  0  0  0  0  0  0  0  0
    3.8411    6.2691    0.0000 F   0  0  0  0  0  0  0  0  0  0  0  0
    3.9970    8.2508    0.0000 F   0  0  0  0  0  0  0  0  0  0  0  0
    2.0490    8.6471    0.0000 C   0  0  0  0  0  0  0  0  0  0  0  0
    1.2990    9.9462    0.0000 F   0  0  0  0  0  0  0  0  0  0  0  0
    3.3481    9.3971    0.0000 F   0  0  0  0  0  0  0  0  0  0  0  0
    0.6071    8.2337    0.0000 F   0  0  0  0  0  0  0  0  0  0  0  0
  1  2  1  0
  2  3  1  0
  3  4  1  0
  4  5  1  0
  5  6  1  0
  6  7  1  0
  7  8  1  0
  8  9  1  0
  5 10  1  0
 10 11  1  0
 11 12  1  0
 12 13  1  0
  5 14  1  0
 14 15  1  0
 15 16  1  0
 16 17  1  0
 18 19  1  0
 19 20  1  0
 19 21  1  0
 19 22  1  0
 22 23  1  0
 22 24  1  0
 22 25  1  0
 25 26  1  0
 25 27  1  0
 25 28  1  0
 25 29  1  0
 29 30  1  0
 29 31  1  0
 29 32  1  0
 32 33  1  0
 32 34  1  0
 32 35  1  0
 25 36  1  0
 36 37  1  0
 36 38  1  0
 36 39  1  0
 39 40  1  0
 39 41  1  0
 39 42  1  0
M  CHG  2   5   1  25  -1
M  END
$$$$

     RDKit          2D

 18 18  0  0  0  0  0  0  0  0999 V2000
    2.1213    1.0607    0.0000 C   0  0  0  0  0  0  0  0  0  0  0  0
    1.0607    0.0000    0.0000 C   0  0  0  0  0  0  0  0  0  0  0  0
    2.1213   -1.0607    0.0000 C   0  0  0  0  0  0  0  0  0  0  0  0
    1.7331   -2.5095    0.0000 O   0  0  0  0  0  0  0  0  0  0  0  0
    2.7938   -3.5702    0.0000 C   0  0  0  0  0  0  0  0  0  0  0  0
    2.4055   -5.0191    0.0000 C   0  0  0  0  0  0  0  0  0  0  0  0
    3.8544   -5.4073    0.0000 F   0  0  0  0  0  0  0  0  0  0  0  0
    0.9566   -4.6309    0.0000 F   0  0  0  0  0  0  0  0  0  0  0  0
    2.0173   -6.4680    0.0000 C   0  0  0  0  0  0  0  0  0  0  0  0
    0.5684   -6.0798    0.0000 F   0  0  0  0  0  0  0  0  0  0  0  0
    3.4662   -6.8562    0.0000 F   0  0  0  0  0  0  0  0  0  0  0  0
    1.6291   -7.9169    0.0000 C   0  0  0  0  0  0  0  0  0  0  0  0
    1.2408   -9.3658    0.0000 F   0  0  0  0  0  0  0  0  0  0  0  0
    3.0780   -8.3051    0.0000 F   0  0  0  0  0  0  0  0  0  0  0  0
    0.1802   -7.5286    0.0000 F   0  0  0  0  0  0  0  0  0  0  0  0
   -0.0000   -1.0607    0.0000 C   0  0  0  0  0  0  0  0  0  0  0  0
   -1.0607    0.0000    0.0000 O   0  0  0  0  0  0  0  0  0  0  0  0
    0.0000    1.0607    0.0000 C   0  0  0  0  0  0  0  0  0  0  0  0
  1  2  1  0
  2  3  1  0
  3  4  1  0
  4  5  1  0
  5  6  1  0
  6  7  1  0
  6  8  1  0
  6  9  1  0
  9 10  1  0
  9 11  1  0
  9 12  1  0
 12 13  1  0
 12 14  1  0
 12 15  1  0
  2 16  1  0
 16 17  1  0
 17 18  1  0
 18  2  1  0
M  END
$$$$

     RDKit          2D

 33 32  0  0  0  0  0  0  0  0999 V2000
   15.5885    3.0000    0.0000 C   0  0  0  0  0  0  0  0  0  0  0  0
   14.2894    2.2500    0.0000 C   0  0  0  0  0  0  0  0  0  0  0  0
   12.9904    3.0000    0.0000 C   0  0  0  0  0  0  0  0  0  0  0  0
   11.6913    2.2500    0.0000 C   0  0  0  0  0  0  0  0  0  0  0  0
   10.3923    3.0000    0.0000 N   0  0  0  0  0  0  0  0  0  0  0  0
    9.0933    2.2500    0.0000 S   0  0  0  0  0  0  0  0  0  0  0  0
    9.8433    0.9510    0.0000 O   0  0  0  0  0  0  0  0  0  0  0  0
    8.7818    2.9838    0.0000 O   0  0  0  0  0  0  0  0  0  0  0  0
    7.7942    1.5000    0.0000 C   0  0  0  0  0  0  0  0  0  0  0  0
    8.5442    0.2010    0.0000 F   0  0  0  0  0  0  0  0  0  0  0  0
    6.4952    0.7500    0.0000 F   0  0  0  0  0  0  0  0  0  0  0  0
    7.0442    2.7990    0.0000 C   0  0  0  0  0  0  0  0  0  0  0  0
    5.7452    2.0490    0.0000 F   0  0  0  0  0  0  0  0  0  0  0  0
    7.7516    3.3321    0.0000 F   0  0  0  0  0  0  0  0  0  0  0  0
    6.2942    4.0981    0.0000 C   0  0  0  0  0  0  0  0  0  0  0  0
    4.9952    3.3481    0.0000 F   0  0  0  0  0  0  0  0  0  0  0  0
    7.5933    4.8481    0.0000 F   0  0  0  0  0  0  0  0  0  0  0  0
    5.5442    5.3971    0.0000 C   0  0  0  0  0  0  0  0  0  0  0  0
    6.8433    6.1471    0.0000 F   0  0  0  0  0  0  0  0  0  0  0  0
    4.2452    4.6471    0.0000 F   0  0  0  0  0  0  0  0  0  0  0  0
    4.7942    6.6962    0.0000 C   0  0  0  0  0  0  0  0  0  0  0  0
    6.0933    7.4462    0.0000 F   0  0  0  0  0  0  0  0  0  0  0  0
    3.4952    5.9462    0.0000 F   0  0  0  0  0  0  0  0  0  0  0  0
    4.0442    7.9952    0.0000 C   0  0  0  0  0  0  0  0  0  0  0  0
    2.7452    7.2452    0.0000 F   0  0  0  0  0  0  0  0  0  0  0  0
    5.3433    8.7452    0.0000 F   0  0  0  0  0  0  0  0  0  0  0  0
    3.2942    9.2942    0.0000 C   0  0  0  0  0  0  0  0  0  0  0  0
    4.5933   10.0442    0.0000 F   0  0  0  0  0  0  0  0  0  0  0  0
    1.9952    8.5442    0.0000 F   0  0  0  0  0  0  0  0  0  0  0  0
    2.5442   10.5933    0.0000 C   0  0  0  0  0  0  0  0  0  0  0  0
    1.7942   11.8923    0.0000 F   0  0  0  0  0  0  0  0  0  0  0  0
    1.2452    9.8433    0.0000 F   0  0  0  0  0  0  0  0  0  0  0  0
    3.8433   11.3433    0.0000 F   0  0  0  0  0  0  0  0  0  0  0  0
  1  2  1  0
  2  3  1  0
  3  4  1  0
  4  5  1  0
  5  6  1  0
  6  7  2  0
  6  8  2  0
  6  9  1  0
  9 10  1  0
  9 11  1  0
  9 12  1  0
 12 13  1  0
 12 14  1  0
 12 15  1  0
 15 16  1  0
 15 17  1  0
 15 18  1  0
 18 19  1  0
 18 20  1  0
 18 21  1  0
 21 22  1  0
 21 23  1  0
 21 24  1  0
 24 25  1  0
 24 26  1  0
 24 27  1  0
 27 28  1  0
 27 29  1  0
 27 30  1  0
 30 31  1  0
 30 32  1  0
 30 33  1  0
M  END
$$$$

     RDKit          2D

 29 28  0  0  0  0  0  0  0  0999 V2000
   -1.5000    0.0000    0.0000 O   0  0  0  0  0  0  0  0  0  0  0  0
    0.0000    0.0000    0.0000 C   0  0  0  0  0  0  0  0  0  0  0  0
    0.0000    1.5000    0.0000 F   0  0  0  0  0  0  0  0  0  0  0  0
   -0.0000   -1.5000    0.0000 F   0  0  0  0  0  0  0  0  0  0  0  0
    1.5000    0.0000    0.0000 C   0  0  0  0  0  0  0  0  0  0  0  0
    1.5000    1.5000    0.0000 F   0  0  0  0  0  0  0  0  0  0  0  0
    1.5000   -1.5000    0.0000 F   0  0  0  0  0  0  0  0  0  0  0  0
    3.0000    0.0000    0.0000 C   0  0  0  0  0  0  0  0  0  0  0  0
    3.0000   -1.5000    0.0000 F   0  0  0  0  0  0  0  0  0  0  0  0
    3.0000    1.5000    0.0000 F   0  0  0  0  0  0  0  0  0  0  0  0
    4.5000    0.0000    0.0000 C   0  0  0  0  0  0  0  0  0  0  0  0
    4.5000    1.5000    0.0000 F   0  0  0  0  0  0  0  0  0  0  0  0
    4.5000   -1.5000    0.0000 F   0  0  0  0  0  0  0  0  0  0  0  0
    6.0000    0.0000    0.0000 C   0  0  0  0  0  0  0  0  0  0  0  0
    6.0000    1.5000    0.0000 F   0  0  0  0  0  0  0  0  0  0  0  0
    6.0000   -1.5000    0.0000 F   0  0  0  0  0  0  0  0  0  0  0  0
    7.5000    0.0000    0.0000 C   0  0  0  0  0  0  0  0  0  0  0  0
    7.5000   -1.5000    0.0000 F   0  0  0  0  0  0  0  0  0  0  0  0
    7.5000    1.5000    0.0000 F   0  0  0  0  0  0  0  0  0  0  0  0
    9.0000    0.0000    0.0000 C   0  0  0  0  0  0  0  0  0  0  0  0
    9.0000    1.5000    0.0000 F   0  0  0  0  0  0  0  0  0  0  0  0
    9.0000   -1.5000    0.0000 F   0  0  0  0  0  0  0  0  0  0  0  0
   10.5000    0.0000    0.0000 C   0  0  0  0  0  0  0  0  0  0  0  0
   10.5000   -1.5000    0.0000 F   0  0  0  0  0  0  0  0  0  0  0  0
   10.5000    1.5000    0.0000 F   0  0  0  0  0  0  0  0  0  0  0  0
   12.0000    0.0000    0.0000 C   0  0  0  0  0  0  0  0  0  0  0  0
   13.5000    0.0000    0.0000 F   0  0  0  0  0  0  0  0  0  0  0  0
   12.0000    1.5000    0.0000 F   0  0  0  0  0  0  0  0  0  0  0  0
   12.0000   -1.5000    0.0000 F   0  0  0  0  0  0  0  0  0  0  0  0
  1  2  1  0
  2  3  1  0
  2  4  1  0
  2  5  1  0
  5  6  1  0
  5  7  1  0
  5  8  1  0
  8  9  1  0
  8 10  1  0
  8 11  1  0
 11 12  1  0
 11 13  1  0
 11 14  1  0
 14 15  1  0
 14 16  1  0
 14 17  1  0
 17 18  1  0
 17 19  1  0
 17 20  1  0
 20 21  1  0
 20 22  1  0
 20 23  1  0
 23 24  1  0
 23 25  1  0
 23 26  1  0
 26 27  1  0
 26 28  1  0
 26 29  1  0
M  END
$$$$

     RDKit          2D

 25 24  0  0  0  0  0  0  0  0999 V2000
   -1.2990    0.7500    0.0000 F   0  0  0  0  0  0  0  0  0  0  0  0
    0.0000    0.0000    0.0000 C   0  0  0  0  0  0  0  0  0  0  0  0
   -0.0000   -1.5000    0.0000 F   0  0  0  0  0  0  0  0  0  0  0  0
    1.2990    0.7500    0.0000 C   0  0  0  0  0  0  0  0  0  0  0  0
    1.2990    2.2500    0.0000 F   0  0  0  0  0  0  0  0  0  0  0  0
    2.5981   -0.0000    0.0000 O   0  0  0  0  0  0  0  0  0  0  0  0
    3.8971    0.7500    0.0000 C   0  0  0  0  0  0  0  0  0  0  0  0
    3.1471    2.0490    0.0000 F   0  0  0  0  0  0  0  0  0  0  0  0
    4.6471   -0.5490    0.0000 F   0  0  0  0  0  0  0  0  0  0  0  0
    5.1962    1.5000    0.0000 C   0  0  0  0  0  0  0  0  0  0  0  0
    5.9462    0.2010    0.0000 F   0  0  0  0  0  0  0  0  0  0  0  0
    4.4462    2.7990    0.0000 F   0  0  0  0  0  0  0  0  0  0  0  0
    6.4952    2.2500    0.0000 C   0  0  0  0  0  0  0  0  0  0  0  0
    5.7452    3.5490    0.0000 F   0  0  0  0  0  0  0  0  0  0  0  0
    7.2452    0.9510    0.0000 F   0  0  0  0  0  0  0  0  0  0  0  0
    7.7942    3.0000    0.0000 C   0  0  0  0  0  0  0  0  0  0  0  0
    7.0442    4.2990    0.0000 F   0  0  0  0  0  0  0  0  0  0  0  0
    8.5442    1.7010    0.0000 F   0  0  0  0  0  0  0  0  0  0  0  0
    9.0933    3.7500    0.0000 C   0  0  0  0  0  0  0  0  0  0  0  0
    9.8433    2.4510    0.0000 F   0  0  0  0  0  0  0  0  0  0  0  0
    8.3433    5.0490    0.0000 F   0  0  0  0  0  0  0  0  0  0  0  0
   10.3923    4.5000    0.0000 C   0  0  0  0  0  0  0  0  0  0  0  0
   11.6913    5.2500    0.0000 F   0  0  0  0  0  0  0  0  0  0  0  0
    9.6423    5.7990    0.0000 F   0  0  0  0  0  0  0  0  0  0  0  0
   11.1423    3.2010    0.0000 F   0  0  0  0  0  0  0  0  0  0  0  0
  1  2  1  0
  2  3  1  0
  2  4  2  0
  4  5  1  0
  4  6  1  0
  6  7  1  0
  7  8  1  0
  7  9  1  0
  7 10  1  0
 10 11  1  0
 10 12  1  0
 10 13  1  0
 13 14  1  0
 13 15  1  0
 13 16  1  0
 16 17  1  0
 16 18  1  0
 16 19  1  0
 19 20  1  0
 19 21  1  0
 19 22  1  0
 22 23  1  0
 22 24  1  0
 22 25  1  0
M  END
$$$$

     RDKit          2D

 17 16  0  0  0  0  0  0  0  0999 V2000
    0.0000    0.0000    0.0000 R   0  0  0  0  0  0  0  0  0  0  0  0
    1.2990    0.7500    0.0000 C   0  0  0  0  0  0  0  0  0  0  0  0
    2.5981    1.5000    0.0000 R   0  0  0  0  0  0  0  0  0  0  0  0
    2.0490   -0.5490    0.0000 R   0  0  0  0  0  0  0  0  0  0  0  0
    0.5490    2.0490    0.0000 C   0  0  0  0  0  0  0  0  0  0  0  0
   -0.7500    1.2990    0.0000 R   0  0  0  0  0  0  0  0  0  0  0  0
    1.8481    2.7990    0.0000 R   0  0  0  0  0  0  0  0  0  0  0  0
   -0.2010    3.3481    0.0000 C   0  0  0  0  0  0  0  0  0  0  0  0
    1.0981    4.0981    0.0000 R   0  0  0  0  0  0  0  0  0  0  0  0
   -1.5000    2.5981    0.0000 R   0  0  0  0  0  0  0  0  0  0  0  0
   -0.9510    4.6471    0.0000 C   0  0  0  0  0  0  0  0  0  0  0  0
    0.3481    5.3971    0.0000 R   0  0  0  0  0  0  0  0  0  0  0  0
   -2.2500    3.8971    0.0000 R   0  0  0  0  0  0  0  0  0  0  0  0
   -1.7010    5.9462    0.0000 C   0  0  0  0  0  0  0  0  0  0  0  0
   -3.0000    5.1962    0.0000 R   0  0  0  0  0  0  0  0  0  0  0  0
   -0.4019    6.6962    0.0000 R   0  0  0  0  0  0  0  0  0  0  0  0
   -2.4510    7.2452    0.0000 R   0  0  0  0  0  0  0  0  0  0  0  0
  1  2  1  0
  2  3  1  0
  2  4  1  0
  2  5  1  0
  5  6  1  0
  5  7  1  0
  5  8  1  0
  8  9  1  0
  8 10  1  0
  8 11  1  0
 11 12  1  0
 11 13  1  0
 11 14  1  0
 14 15  1  0
 14 16  1  0
 14 17  1  0
M  END
$$$$

     RDKit          2D

 12 11  0  0  0  0  0  0  0  0999 V2000
   -1.2990    0.7500    0.0000 F   0  0  0  0  0  0  0  0  0  0  0  0
    0.0000    0.0000    0.0000 C   0  0  0  0  0  0  0  0  0  0  0  0
   -0.0000   -1.5000    0.0000 F   0  0  0  0  0  0  0  0  0  0  0  0
    1.2990    0.7500    0.0000 C   0  0  0  0  0  0  0  0  0  0  0  0
    2.0490   -0.5490    0.0000 F   0  0  0  0  0  0  0  0  0  0  0  0
    0.5490    2.0490    0.0000 F   0  0  0  0  0  0  0  0  0  0  0  0
    2.5981    1.5000    0.0000 C   0  0  0  0  0  0  0  0  0  0  0  0
    1.8481    2.7990    0.0000 F   0  0  0  0  0  0  0  0  0  0  0  0
    3.3481    0.2010    0.0000 F   0  0  0  0  0  0  0  0  0  0  0  0
    3.8971    2.2500    0.0000 C   0  0  0  0  0  0  0  0  0  0  0  0
    5.1962    1.5000    0.0000 F   0  0  0  0  0  0  0  0  0  0  0  0
    3.8971    3.7500    0.0000 I   0  0  0  0  0  0  0  0  0  0  0  0
  1  2  1  0
  2  3  1  0
  2  4  1  0
  4  5  1  0
  4  6  1  0
  4  7  1  0
  7  8  1  0
  7  9  1  0
  7 10  1  0
 10 11  1  0
 10 12  1  0
M  END
$$$$

     RDKit          2D

 28 29  0  0  0  0  0  0  0  0999 V2000
    5.2500   -3.8971    0.0000 F   0  0  0  0  0  0  0  0  0  0  0  0
    4.5000   -2.5981    0.0000 C   0  0  0  0  0  0  0  0  0  0  0  0
    3.2010   -3.3481    0.0000 F   0  0  0  0  0  0  0  0  0  0  0  0
    5.7990   -1.8481    0.0000 Br  0  0  0  0  0  0  0  0  0  0  0  0
    3.7500   -1.2990    0.0000 C   0  0  0  0  0  0  0  0  0  0  0  0
    2.4510   -2.0490    0.0000 F   0  0  0  0  0  0  0  0  0  0  0  0
    5.0490   -0.5490    0.0000 F   0  0  0  0  0  0  0  0  0  0  0  0
    3.0000    0.0000    0.0000 O   0  0  0  0  0  0  0  0  0  0  0  0
    1.5000    0.0000    0.0000 C   0  0  0  0  0  0  0  0  0  0  0  0
    0.7500   -1.2990    0.0000 C   0  0  0  0  0  0  0  0  0  0  0  0
   -0.7500   -1.2990    0.0000 C   0  0  0  0  0  0  0  0  0  0  0  0
   -1.5000    0.0000    0.0000 C   0  0  0  0  0  0  0  0  0  0  0  0
   -3.0000    0.0000    0.0000 C   0  0  0  0  0  0  0  0  0  0  0  0
   -3.7500    1.2990    0.0000 C   0  0  0  0  0  0  0  0  0  0  0  0
   -5.2500    1.2990    0.0000 C   0  0  0  0  0  0  0  0  0  0  0  0
   -6.0000    0.0000    0.0000 C   0  0  0  0  0  0  0  0  0  0  0  0
   -7.5000    0.0000    0.0000 O   0  0  0  0  0  0  0  0  0  0  0  0
   -8.2500    1.2990    0.0000 C   0  0  0  0  0  0  0  0  0  0  0  0
   -6.9510    2.0490    0.0000 F   0  0  0  0  0  0  0  0  0  0  0  0
   -9.5490    0.5490    0.0000 F   0  0  0  0  0  0  0  0  0  0  0  0
   -9.0000    2.5981    0.0000 C   0  0  0  0  0  0  0  0  0  0  0  0
   -9.7500    3.8971    0.0000 F   0  0  0  0  0  0  0  0  0  0  0  0
   -7.7010    3.3481    0.0000 F   0  0  0  0  0  0  0  0  0  0  0  0
  -10.2990    1.8481    0.0000 Br  0  0  0  0  0  0  0  0  0  0  0  0
   -5.2500   -1.2990    0.0000 C   0  0  0  0  0  0  0  0  0  0  0  0
   -3.7500   -1.2990    0.0000 C   0  0  0  0  0  0  0  0  0  0  0  0
   -0.7500    1.2990    0.0000 C   0  0  0  0  0  0  0  0  0  0  0  0
    0.7500    1.2990    0.0000 C   0  0  0  0  0  0  0  0  0  0  0  0
  1  2  1  0
  2  3  1  0
  2  4  1  0
  2  5  1  0
  5  6  1  0
  5  7  1  0
  5  8  1  0
  8  9  1  0
  9 10  2  0
 10 11  1  0
 11 12  2  0
 12 13  1  0
 13 14  2  0
 14 15  1  0
 15 16  2  0
 16 17  1  0
 17 18  1  0
 18 19  1  0
 18 20  1  0
 18 21  1  0
 21 22  1  0
 21 23  1  0
 21 24  1  0
 16 25  1  0
 25 26  2  0
 12 27  1  0
 27 28  2  0
 28  9  1  0
 26 13  1  0
M  END
$$$$

     RDKit          2D

 25 24  0  0  0  0  0  0  0  0999 V2000
   -1.2990    0.7500    0.0000 O   0  0  0  0  0  0  0  0  0  0  0  0
    0.0000    0.0000    0.0000 C   0  0  0  0  0  0  0  0  0  0  0  0
    1.2990    0.7500    0.0000 C   0  0  0  0  0  0  0  0  0  0  0  0
    2.5981   -0.0000    0.0000 C   0  0  0  0  0  0  0  0  0  0  0  0
    3.8971    0.7500    0.0000 C   0  0  0  0  0  0  0  0  0  0  0  0
    5.1962   -0.0000    0.0000 C   0  0  0  0  0  0  0  0  0  0  0  0
    6.4952    0.7500    0.0000 C   0  0  0  0  0  0  0  0  0  0  0  0
    7.7942   -0.0000    0.0000 C   0  0  0  0  0  0  0  0  0  0  0  0
    9.0933    0.7500    0.0000 C   0  0  0  0  0  0  0  0  0  0  0  0
   10.3923   -0.0000    0.0000 C   0  0  0  0  0  0  0  0  0  0  0  0
   11.6913    0.7500    0.0000 C   0  0  0  0  0  0  0  0  0  0  0  0
   12.9904   -0.0000    0.0000 C   0  0  0  0  0  0  0  0  0  0  0  0
   14.2894    0.7500    0.0000 C   0  0  0  0  0  0  0  0  0  0  0  0
   15.0394   -0.5490    0.0000 F   0  0  0  0  0  0  0  0  0  0  0  0
   13.5394    2.0490    0.0000 F   0  0  0  0  0  0  0  0  0  0  0  0
   15.5885    1.5000    0.0000 C   0  0  0  0  0  0  0  0  0  0  0  0
   14.8385    2.7990    0.0000 F   0  0  0  0  0  0  0  0  0  0  0  0
   16.3385    0.2010    0.0000 F   0  0  0  0  0  0  0  0  0  0  0  0
   16.8875    2.2500    0.0000 C   0  0  0  0  0  0  0  0  0  0  0  0
   17.6375    0.9510    0.0000 F   0  0  0  0  0  0  0  0  0  0  0  0
   16.1375    3.5490    0.0000 F   0  0  0  0  0  0  0  0  0  0  0  0
   18.1865    3.0000    0.0000 C   0  0  0  0  0  0  0  0  0  0  0  0
   19.4856    3.7500    0.0000 F   0  0  0  0  0  0  0  0  0  0  0  0
   17.4365    4.2990    0.0000 F   0  0  0  0  0  0  0  0  0  0  0  0
   18.9365    1.7010    0.0000 F   0  0  0  0  0  0  0  0  0  0  0  0
  1  2  1  0
  2  3  1  0
  3  4  1  0
  4  5  1  0
  5  6  1  0
  6  7  1  0
  7  8  1  0
  8  9  1  0
  9 10  1  0
 10 11  1  0
 11 12  1  0
 12 13  1  0
 13 14  1  0
 13 15  1  0
 13 16  1  0
 16 17  1  0
 16 18  1  0
 16 19  1  0
 19 20  1  0
 19 21  1  0
 19 22  1  0
 22 23  1  0
 22 24  1  0
 22 25  1  0
M  END
$$$$

     RDKit          2D

 33 32  0  0  0  0  0  0  0  0999 V2000
    0.0000    0.0000    0.0000 C   0  0  0  0  0  0  0  0  0  0  0  0
    1.2990    0.7500    0.0000 C   0  0  0  0  0  0  0  0  0  0  0  0
    1.2990    2.2500    0.0000 F   0  0  0  0  0  0  0  0  0  0  0  0
    2.5981   -0.0000    0.0000 C   0  0  0  0  0  0  0  0  0  0  0  0
    2.5981   -1.5000    0.0000 O   0  0  0  0  0  0  0  0  0  0  0  0
    3.8971    0.7500    0.0000 O   0  0  0  0  0  0  0  0  0  0  0  0
    5.1962   -0.0000    0.0000 C   0  0  0  0  0  0  0  0  0  0  0  0
    6.4952    0.7500    0.0000 C   0  0  0  0  0  0  0  0  0  0  0  0
    7.7942   -0.0000    0.0000 C   0  0  0  0  0  0  0  0  0  0  0  0
    8.5442    1.2990    0.0000 F   0  0  0  0  0  0  0  0  0  0  0  0
    7.0442   -1.2990    0.0000 F   0  0  0  0  0  0  0  0  0  0  0  0
    9.0933   -0.7500    0.0000 C   0  0  0  0  0  0  0  0  0  0  0  0
    8.3433   -2.0490    0.0000 F   0  0  0  0  0  0  0  0  0  0  0  0
    9.8433    0.5490    0.0000 F   0  0  0  0  0  0  0  0  0  0  0  0
   10.3923   -1.5000    0.0000 C   0  0  0  0  0  0  0  0  0  0  0  0
   11.1423   -0.2010    0.0000 F   0  0  0  0  0  0  0  0  0  0  0  0
    9.6423   -2.7990    0.0000 F   0  0  0  0  0  0  0  0  0  0  0  0
   11.6913   -2.2500    0.0000 C   0  0  0  0  0  0  0  0  0  0  0  0
   10.9413   -3.5490    0.0000 F   0  0  0  0  0  0  0  0  0  0  0  0
   12.4413   -0.9510    0.0000 F   0  0  0  0  0  0  0  0  0  0  0  0
   12.9904   -3.0000    0.0000 C   0  0  0  0  0  0  0  0  0  0  0  0
   13.7404   -1.7010    0.0000 F   0  0  0  0  0  0  0  0  0  0  0  0
   12.2404   -4.2990    0.0000 F   0  0  0  0  0  0  0  0  0  0  0  0
   14.2894   -3.7500    0.0000 C   0  0  0  0  0  0  0  0  0  0  0  0
   13.5394   -5.0490    0.0000 F   0  0  0  0  0  0  0  0  0  0  0  0
   15.0394   -2.4510    0.0000 F   0  0  0  0  0  0  0  0  0  0  0  0
   15.5885   -4.5000    0.0000 C   0  0  0  0  0  0  0  0  0  0  0  0
   16.3385   -3.2010    0.0000 F   0  0  0  0  0  0  0  0  0  0  0  0
   14.8385   -5.7990    0.0000 F   0  0  0  0  0  0  0  0  0  0  0  0
   16.8875   -5.2500    0.0000 C   0  0  0  0  0  0  0  0  0  0  0  0
   18.1865   -6.0000    0.0000 F   0  0  0  0  0  0  0  0  0  0  0  0
   16.1375   -6.5490    0.0000 F   0  0  0  0  0  0  0  0  0  0  0  0
   17.6375   -3.9510    0.0000 F   0  0  0  0  0  0  0  0  0  0  0  0
  1  2  2  0
  2  3  1  0
  2  4  1  0
  4  5  2  0
  4  6  1  0
  6  7  1  0
  7  8  1  0
  8  9  1  0
  9 10  1  0
  9 11  1  0
  9 12  1  0
 12 13  1  0
 12 14  1  0
 12 15  1  0
 15 16  1  0
 15 17  1  0
 15 18  1  0
 18 19  1  0
 18 20  1  0
 18 21  1  0
 21 22  1  0
 21 23  1  0
 21 24  1  0
 24 25  1  0
 24 26  1  0
 24 27  1  0
 27 28  1  0
 27 29  1  0
 27 30  1  0
 30 31  1  0
 30 32  1  0
 30 33  1  0
M  END
$$$$

     RDKit          2D

 40 39  0  0  0  0  0  0  0  0999 V2000
    0.0000    0.0000    0.0000 C   0  0  0  0  0  0  0  0  0  0  0  0
    1.2990    0.7500    0.0000 C   0  0  0  0  0  0  0  0  0  0  0  0
    2.5981   -0.0000    0.0000 C   0  0  0  0  0  0  0  0  0  0  0  0
    3.8971    0.7500    0.0000 O   0  0  0  0  0  0  0  0  0  0  0  0
    5.1962   -0.0000    0.0000 Si  0  0  0  0  0  4  0  0  0  0  0  0
    6.4952   -0.7500    0.0000 C   0  0  0  0  0  0  0  0  0  0  0  0
    6.4952   -2.2500    0.0000 C   0  0  0  0  0  0  0  0  0  0  0  0
    7.7942   -3.0000    0.0000 C   0  0  0  0  0  0  0  0  0  0  0  0
    7.0442   -4.2990    0.0000 F   0  0  0  0  0  0  0  0  0  0  0  0
    8.5442   -1.7010    0.0000 F   0  0  0  0  0  0  0  0  0  0  0  0
    9.0933   -3.7500    0.0000 C   0  0  0  0  0  0  0  0  0  0  0  0
    9.8433   -2.4510    0.0000 F   0  0  0  0  0  0  0  0  0  0  0  0
    8.3433   -5.0490    0.0000 F   0  0  0  0  0  0  0  0  0  0  0  0
   10.3923   -4.5000    0.0000 C   0  0  0  0  0  0  0  0  0  0  0  0
    9.6423   -5.7990    0.0000 F   0  0  0  0  0  0  0  0  0  0  0  0
   11.1423   -3.2010    0.0000 F   0  0  0  0  0  0  0  0  0  0  0  0
   11.6913   -5.2500    0.0000 C   0  0  0  0  0  0  0  0  0  0  0  0
   12.4413   -3.9510    0.0000 F   0  0  0  0  0  0  0  0  0  0  0  0
   10.9413   -6.5490    0.0000 F   0  0  0  0  0  0  0  0  0  0  0  0
   12.9904   -6.0000    0.0000 C   0  0  0  0  0  0  0  0  0  0  0  0
   12.2404   -7.2990    0.0000 F   0  0  0  0  0  0  0  0  0  0  0  0
   13.7404   -4.7010    0.0000 F   0  0  0  0  0  0  0  0  0  0  0  0
   14.2894   -6.7500    0.0000 C   0  0  0  0  0  0  0  0  0  0  0  0
   15.0394   -5.4510    0.0000 F   0  0  0  0  0  0  0  0  0  0  0  0
   13.5394   -8.0490    0.0000 F   0  0  0  0  0  0  0  0  0  0  0  0
   15.5885   -7.5000    0.0000 C   0  0  0  0  0  0  0  0  0  0  0  0
   14.8385   -8.7990    0.0000 F   0  0  0  0  0  0  0  0  0  0  0  0
   16.3385   -6.2010    0.0000 F   0  0  0  0  0  0  0  0  0  0  0  0
   16.8875   -8.2500    0.0000 C   0  0  0  0  0  0  0  0  0  0  0  0
   18.1865   -9.0000    0.0000 F   0  0  0  0  0  0  0  0  0  0  0  0
   17.6375   -6.9510    0.0000 F   0  0  0  0  0  0  0  0  0  0  0  0
   16.1375   -9.5490    0.0000 F   0  0  0  0  0  0  0  0  0  0  0  0
    4.4462   -1.2990    0.0000 O   0  0  0  0  0  0  0  0  0  0  0  0
    5.1962   -2.5981    0.0000 C   0  0  0  0  0  0  0  0  0  0  0  0
    4.4462   -3.8971    0.0000 C   0  0  0  0  0  0  0  0  0  0  0  0
    5.1962   -5.1962    0.0000 C   0  0  0  0  0  0  0  0  0  0  0  0
    5.9462    1.2990    0.0000 O   0  0  0  0  0  0  0  0  0  0  0  0
    7.4462    1.2990    0.0000 C   0  0  0  0  0  0  0  0  0  0  0  0
    8.1962    2.5981    0.0000 C   0  0  0  0  0  0  0  0  0  0  0  0
    9.6962    2.5981    0.0000 C   0  0  0  0  0  0  0  0  0  0  0  0
  1  2  1  0
  2  3  1  0
  3  4  1  0
  4  5  1  0
  5  6  1  0
  6  7  1  0
  7  8  1  0
  8  9  1  0
  8 10  1  0
  8 11  1  0
 11 12  1  0
 11 13  1  0
 11 14  1  0
 14 15  1  0
 14 16  1  0
 14 17  1  0
 17 18  1  0
 17 19  1  0
 17 20  1  0
 20 21  1  0
 20 22  1  0
 20 23  1  0
 23 24  1  0
 23 25  1  0
 23 26  1  0
 26 27  1  0
 26 28  1  0
 26 29  1  0
 29 30  1  0
 29 31  1  0
 29 32  1  0
  5 33  1  0
 33 34  1  0
 34 35  1  0
 35 36  1  0
  5 37  1  0
 37 38  1  0
 38 39  1  0
 39 40  1  0
M  END
$$$$

     RDKit          2D

 24 23  0  0  0  0  0  0  0  0999 V2000
   -2.5981    1.5000    0.0000 F   0  0  0  0  0  0  0  0  0  0  0  0
   -1.2990    0.7500    0.0000 C   0  0  0  0  0  0  0  0  0  0  0  0
   -2.0490   -0.5490    0.0000 F   0  0  0  0  0  0  0  0  0  0  0  0
   -0.5490    2.0490    0.0000 I   0  0  0  0  0  0  0  0  0  0  0  0
    0.0000    0.0000    0.0000 C   0  0  0  0  0  0  0  0  0  0  0  0
    1.2990    0.7500    0.0000 C   0  0  0  0  0  0  0  0  0  0  0  0
    2.0490   -0.5490    0.0000 F   0  0  0  0  0  0  0  0  0  0  0  0
    0.5490    2.0490    0.0000 F   0  0  0  0  0  0  0  0  0  0  0  0
    2.5981    1.5000    0.0000 C   0  0  0  0  0  0  0  0  0  0  0  0
    1.8481    2.7990    0.0000 F   0  0  0  0  0  0  0  0  0  0  0  0
    3.3481    0.2010    0.0000 F   0  0  0  0  0  0  0  0  0  0  0  0
    3.8971    2.2500    0.0000 C   0  0  0  0  0  0  0  0  0  0  0  0
    4.6471    0.9510    0.0000 F   0  0  0  0  0  0  0  0  0  0  0  0
    3.1471    3.5490    0.0000 F   0  0  0  0  0  0  0  0  0  0  0  0
    5.1962    3.0000    0.0000 C   0  0  0  0  0  0  0  0  0  0  0  0
    4.4462    4.2990    0.0000 F   0  0  0  0  0  0  0  0  0  0  0  0
    5.9462    1.7010    0.0000 F   0  0  0  0  0  0  0  0  0  0  0  0
    6.4952    3.7500    0.0000 C   0  0  0  0  0  0  0  0  0  0  0  0
    7.2452    2.4510    0.0000 F   0  0  0  0  0  0  0  0  0  0  0  0
    5.7452    5.0490    0.0000 F   0  0  0  0  0  0  0  0  0  0  0  0
    7.7942    4.5000    0.0000 C   0  0  0  0  0  0  0  0  0  0  0  0
    9.0933    5.2500    0.0000 F   0  0  0  0  0  0  0  0  0  0  0  0
    7.0442    5.7990    0.0000 F   0  0  0  0  0  0  0  0  0  0  0  0
    8.5442    3.2010    0.0000 F   0  0  0  0  0  0  0  0  0  0  0  0
  1  2  1  0
  2  3  1  0
  2  4  1  0
  2  5  1  0
  5  6  1  0
  6  7  1  0
  6  8  1  0
  6  9  1  0
  9 10  1  0
  9 11  1  0
  9 12  1  0
 12 13  1  0
 12 14  1  0
 12 15  1  0
 15 16  1  0
 15 17  1  0
 15 18  1  0
 18 19  1  0
 18 20  1  0
 18 21  1  0
 21 22  1  0
 21 23  1  0
 21 24  1  0
M  END
$$$$

     RDKit          2D

 16 15  0  0  0  0  0  0  0  0999 V2000
    1.2990    2.2500    0.0000 F   0  0  0  0  0  0  0  0  0  0  0  0
    1.2990    0.7500    0.0000 C   0  0  0  0  0  0  0  0  0  0  0  0
    0.0000    0.0000    0.0000 C   0  0  0  0  0  0  0  0  0  0  0  0
   -1.2990    0.7500    0.0000 C   0  0  0  0  0  0  0  0  0  0  0  0
   -2.5981    1.5000    0.0000 F   0  0  0  0  0  0  0  0  0  0  0  0
   -2.0490   -0.5490    0.0000 F   0  0  0  0  0  0  0  0  0  0  0  0
   -0.5490    2.0490    0.0000 F   0  0  0  0  0  0  0  0  0  0  0  0
    2.5981   -0.0000    0.0000 C   0  0  0  0  0  0  0  0  0  0  0  0
    3.8971    0.7500    0.0000 C   0  0  0  0  0  0  0  0  0  0  0  0
    5.1962    1.5000    0.0000 F   0  0  0  0  0  0  0  0  0  0  0  0
    4.6471   -0.5490    0.0000 F   0  0  0  0  0  0  0  0  0  0  0  0
    3.1471    2.0490    0.0000 F   0  0  0  0  0  0  0  0  0  0  0  0
    2.5981   -1.5000    0.0000 C   0  0  0  0  0  0  0  0  0  0  0  0
    2.5981   -3.0000    0.0000 F   0  0  0  0  0  0  0  0  0  0  0  0
    4.0981   -1.5000    0.0000 F   0  0  0  0  0  0  0  0  0  0  0  0
    1.0981   -1.5000    0.0000 F   0  0  0  0  0  0  0  0  0  0  0  0
  1  2  1  0
  2  3  2  3
  3  4  1  0
  4  5  1  0
  4  6  1  0
  4  7  1  0
  2  8  1  0
  8  9  1  0
  9 10  1  0
  9 11  1  0
  9 12  1  0
  8 13  1  0
 13 14  1  0
 13 15  1  0
 13 16  1  0
M  END
$$$$

     RDKit          2D

 24 23  0  0  0  0  0  0  0  0999 V2000
   -1.2990    0.7500    0.0000 O   0  0  0  0  0  0  0  0  0  0  0  0
    0.0000    0.0000    0.0000 C   0  0  0  0  0  0  0  0  0  0  0  0
   -0.0000   -1.5000    0.0000 F   0  0  0  0  0  0  0  0  0  0  0  0
    1.2990    0.7500    0.0000 C   0  0  0  0  0  0  0  0  0  0  0  0
    2.0490   -0.5490    0.0000 F   0  0  0  0  0  0  0  0  0  0  0  0
    0.5490    2.0490    0.0000 F   0  0  0  0  0  0  0  0  0  0  0  0
    2.5981    1.5000    0.0000 C   0  0  0  0  0  0  0  0  0  0  0  0
    1.8481    2.7990    0.0000 F   0  0  0  0  0  0  0  0  0  0  0  0
    3.3481    0.2010    0.0000 F   0  0  0  0  0  0  0  0  0  0  0  0
    3.8971    2.2500    0.0000 C   0  0  0  0  0  0  0  0  0  0  0  0
    4.6471    0.9510    0.0000 F   0  0  0  0  0  0  0  0  0  0  0  0
    3.1471    3.5490    0.0000 F   0  0  0  0  0  0  0  0  0  0  0  0
    5.1962    3.0000    0.0000 C   0  0  0  0  0  0  0  0  0  0  0  0
    5.9462    1.7010    0.0000 F   0  0  0  0  0  0  0  0  0  0  0  0
    4.4462    4.2990    0.0000 F   0  0  0  0  0  0  0  0  0  0  0  0
    6.4952    3.7500    0.0000 C   0  0  0  0  0  0  0  0  0  0  0  0
    5.7452    5.0490    0.0000 F   0  0  0  0  0  0  0  0  0  0  0  0
    7.2452    2.4510    0.0000 F   0  0  0  0  0  0  0  0  0  0  0  0
    7.7942    4.5000    0.0000 C   0  0  0  0  0  0  0  0  0  0  0  0
    8.5442    3.2010    0.0000 F   0  0  0  0  0  0  0  0  0  0  0  0
    7.0442    5.7990    0.0000 F   0  0  0  0  0  0  0  0  0  0  0  0
    9.0933    5.2500    0.0000 C   0  0  0  0  0  0  0  0  0  0  0  0
   10.3923    4.5000    0.0000 O   0  0  0  0  0  0  0  0  0  0  0  0
    9.0933    6.7500    0.0000 F   0  0  0  0  0  0  0  0  0  0  0  0
  1  2  2  0
  2  3  1  0
  2  4  1  0
  4  5  1  0
  4  6  1  0
  4  7  1  0
  7  8  1  0
  7  9  1  0
  7 10  1  0
 10 11  1  0
 10 12  1  0
 10 13  1  0
 13 14  1  0
 13 15  1  0
 13 16  1  0
 16 17  1  0
 16 18  1  0
 16 19  1  0
 19 20  1  0
 19 21  1  0
 19 22  1  0
 22 23  2  0
 22 24  1  0
M  END
$$$$

     RDKit          2D

 14 13  0  0  0  0  0  0  0  0999 V2000
    0.0000    0.0000    0.0000 C   0  0  0  0  0  0  0  0  0  0  0  0
    1.2990    0.7500    0.0000 C   0  0  0  0  0  0  0  0  0  0  0  0
    2.5981   -0.0000    0.0000 C   0  0  0  0  0  0  0  0  0  0  0  0
    1.2990    2.2500    0.0000 C   0  0  0  0  0  0  0  0  0  0  0  0
    0.0000    3.0000    0.0000 F   0  0  0  0  0  0  0  0  0  0  0  0
    2.5981    3.0000    0.0000 C   0  0  0  0  0  0  0  0  0  0  0  0
    2.5981    4.5000    0.0000 C   0  0  0  0  0  0  0  0  0  0  0  0
    2.5981    6.0000    0.0000 F   0  0  0  0  0  0  0  0  0  0  0  0
    4.0981    4.5000    0.0000 F   0  0  0  0  0  0  0  0  0  0  0  0
    1.0981    4.5000    0.0000 F   0  0  0  0  0  0  0  0  0  0  0  0
    3.8971    2.2500    0.0000 C   0  0  0  0  0  0  0  0  0  0  0  0
    5.1962    1.5000    0.0000 F   0  0  0  0  0  0  0  0  0  0  0  0
    4.6471    3.5490    0.0000 F   0  0  0  0  0  0  0  0  0  0  0  0
    3.1471    0.9510    0.0000 F   0  0  0  0  0  0  0  0  0  0  0  0
  1  2  1  0
  2  3  1  0
  2  4  2  0
  4  5  1  0
  4  6  1  0
  6  7  1  0
  7  8  1  0
  7  9  1  0
  7 10  1  0
  6 11  1  0
 11 12  1  0
 11 13  1  0
 11 14  1  0
M  END
$$$$

     RDKit          2D

 23 22  0  0  0  0  0  0  0  0999 V2000
   -5.2500    9.0933    0.0000 F   0  0  0  0  0  0  0  0  0  0  0  0
   -4.5000    7.7942    0.0000 C   0  0  0  0  0  0  0  0  0  0  0  0
   -3.2010    8.5442    0.0000 F   0  0  0  0  0  0  0  0  0  0  0  0
   -5.7990    7.0442    0.0000 F   0  0  0  0  0  0  0  0  0  0  0  0
   -3.7500    6.4952    0.0000 C   0  0  0  0  0  0  0  0  0  0  0  0
   -5.0490    5.7452    0.0000 F   0  0  0  0  0  0  0  0  0  0  0  0
   -2.4510    7.2452    0.0000 F   0  0  0  0  0  0  0  0  0  0  0  0
   -3.0000    5.1962    0.0000 C   0  0  0  0  0  0  0  0  0  0  0  0
   -1.7010    5.9462    0.0000 F   0  0  0  0  0  0  0  0  0  0  0  0
   -4.2990    4.4462    0.0000 F   0  0  0  0  0  0  0  0  0  0  0  0
   -2.2500    3.8971    0.0000 C   0  0  0  0  0  0  0  0  0  0  0  0
   -0.9510    4.6471    0.0000 F   0  0  0  0  0  0  0  0  0  0  0  0
   -3.5490    3.1471    0.0000 F   0  0  0  0  0  0  0  0  0  0  0  0
   -1.5000    2.5981    0.0000 C   0  0  0  0  0  0  0  0  0  0  0  0
   -2.7990    1.8481    0.0000 F   0  0  0  0  0  0  0  0  0  0  0  0
   -0.2010    3.3481    0.0000 F   0  0  0  0  0  0  0  0  0  0  0  0
   -0.7500    1.2990    0.0000 C   0  0  0  0  0  0  0  0  0  0  0  0
    0.5490    2.0490    0.0000 F   0  0  0  0  0  0  0  0  0  0  0  0
   -2.0490    0.5490    0.0000 F   0  0  0  0  0  0  0  0  0  0  0  0
    0.0000    0.0000    0.0000 C   0  0  0  0  0  0  0  0  0  0  0  0
   -0.7500   -1.2990    0.0000 Br  0  0  0  0  0  0  0  0  0  0  0  0
    1.5000    0.0000    0.0000 C   0  0  0  0  0  0  0  0  0  0  0  0
    2.2500   -1.2990    0.0000 Br  0  0  0  0  0  0  0  0  0  0  0  0
  1  2  1  0
  2  3  1  0
  2  4  1  0
  2  5  1  0
  5  6  1  0
  5  7  1  0
  5  8  1  0
  8  9  1  0
  8 10  1  0
  8 11  1  0
 11 12  1  0
 11 13  1  0
 11 14  1  0
 14 15  1  0
 14 16  1  0
 14 17  1  0
 17 18  1  0
 17 19  1  0
 17 20  1  0
 20 21  1  0
 20 22  2  0
 22 23  1  0
M  END
$$$$

     RDKit          2D

 15 14  0  0  0  0  0  0  0  0999 V2000
    0.0000    0.0000    0.0000 C   0  0  0  0  0  0  0  0  0  0  0  0
    1.2990    0.7500    0.0000 Si  0  0  0  0  0  4  0  0  0  0  0  0
    2.5981    1.5000    0.0000 C   0  0  0  0  0  0  0  0  0  0  0  0
    2.0490   -0.5490    0.0000 C   0  0  0  0  0  0  0  0  0  0  0  0
    0.5490    2.0490    0.0000 O   0  0  0  0  0  0  0  0  0  0  0  0
    1.2990    3.3481    0.0000 C   0  0  0  0  0  0  0  0  0  0  0  0
    0.5490    4.6471    0.0000 C   0  0  0  0  0  0  0  0  0  0  0  0
    1.2990    5.9462    0.0000 C   0  0  0  0  0  0  0  0  0  0  0  0
    2.0490    7.2452    0.0000 F   0  0  0  0  0  0  0  0  0  0  0  0
    0.0000    6.6962    0.0000 F   0  0  0  0  0  0  0  0  0  0  0  0
    2.5981    5.1962    0.0000 F   0  0  0  0  0  0  0  0  0  0  0  0
   -0.9510    4.6471    0.0000 C   0  0  0  0  0  0  0  0  0  0  0  0
   -2.4510    4.6471    0.0000 F   0  0  0  0  0  0  0  0  0  0  0  0
   -0.9510    6.1471    0.0000 F   0  0  0  0  0  0  0  0  0  0  0  0
   -0.9510    3.1471    0.0000 F   0  0  0  0  0  0  0  0  0  0  0  0
  1  2  1  0
  2  3  1  0
  2  4  1  0
  2  5  1  0
  5  6  1  0
  6  7  2  0
  7  8  1  0
  8  9  1  0
  8 10  1  0
  8 11  1  0
  7 12  1  0
 12 13  1  0
 12 14  1  0
 12 15  1  0
M  END
$$$$

     RDKit          2D

 13 12  0  0  0  0  0  0  0  0999 V2000
    0.0000    0.0000    0.0000 C   0  0  0  0  0  0  0  0  0  0  0  0
    1.2990    0.7500    0.0000 Si  0  0  0  0  0  4  0  0  0  0  0  0
    1.6105    0.0162    0.0000 Cl  0  0  0  0  0  0  0  0  0  0  0  0
    0.3963    1.9479    0.0000 Cl  0  0  0  0  0  0  0  0  0  0  0  0
    2.5981    1.5000    0.0000 C   0  0  0  0  0  0  0  0  0  0  0  0
    3.8971    2.2500    0.0000 F   0  0  0  0  0  0  0  0  0  0  0  0
    1.8481    2.7990    0.0000 C   0  0  0  0  0  0  0  0  0  0  0  0
    2.5981    4.0981    0.0000 F   0  0  0  0  0  0  0  0  0  0  0  0
    0.3593    2.9819    0.0000 F   0  0  0  0  0  0  0  0  0  0  0  0
    3.3481    0.2010    0.0000 C   0  0  0  0  0  0  0  0  0  0  0  0
    4.0981   -1.0981    0.0000 F   0  0  0  0  0  0  0  0  0  0  0  0
    4.6471    0.9510    0.0000 F   0  0  0  0  0  0  0  0  0  0  0  0
    2.6407   -0.3321    0.0000 F   0  0  0  0  0  0  0  0  0  0  0  0
  1  2  1  0
  2  3  1  0
  2  4  1  0
  2  5  1  0
  5  6  1  0
  5  7  1  0
  7  8  1  0
  7  9  1  0
  5 10  1  0
 10 11  1  0
 10 12  1  0
 10 13  1  0
M  END
$$$$

     RDKit          2D

 15 14  0  0  0  0  0  0  0  0999 V2000
   -0.0000    3.0000    0.0000 O   0  0  0  0  0  0  0  0  0  0  0  0
    1.2990    2.2500    0.0000 C   0  0  0  0  0  0  0  0  0  0  0  0
    1.2990    0.7500    0.0000 C   0  0  0  0  0  0  0  0  0  0  0  0
    2.5981   -0.0000    0.0000 C   0  0  0  0  0  0  0  0  0  0  0  0
    3.8971    0.7500    0.0000 C   0  0  0  0  0  0  0  0  0  0  0  0
    4.6471   -0.5490    0.0000 F   0  0  0  0  0  0  0  0  0  0  0  0
    3.1471    2.0490    0.0000 F   0  0  0  0  0  0  0  0  0  0  0  0
    5.1962    1.5000    0.0000 C   0  0  0  0  0  0  0  0  0  0  0  0
    6.4952    2.2500    0.0000 F   0  0  0  0  0  0  0  0  0  0  0  0
    5.9462    0.2010    0.0000 F   0  0  0  0  0  0  0  0  0  0  0  0
    4.4462    2.7990    0.0000 F   0  0  0  0  0  0  0  0  0  0  0  0
   -0.0000   -0.0000    0.0000 C   0  0  0  0  0  0  0  0  0  0  0  0
   -1.2990   -0.7500    0.0000 F   0  0  0  0  0  0  0  0  0  0  0  0
    0.7500   -1.2990    0.0000 F   0  0  0  0  0  0  0  0  0  0  0  0
   -0.7500    1.2990    0.0000 F   0  0  0  0  0  0  0  0  0  0  0  0
  1  2  2  0
  2  3  1  0
  3  4  1  0
  4  5  1  0
  5  6  1  0
  5  7  1  0
  5  8  1  0
  8  9  1  0
  8 10  1  0
  8 11  1  0
  3 12  1  0
 12 13  1  0
 12 14  1  0
 12 15  1  0
M  END
$$$$

     RDKit          2D

 20 19  0  0  0  0  0  0  0  0999 V2000
   -0.0000   -0.0000    0.0000 C   0  0  0  0  0  0  0  0  0  0  0  0
    1.2990    0.7500    0.0000 C   0  0  0  0  0  0  0  0  0  0  0  0
    2.5981   -0.0000    0.0000 N   0  0  0  0  0  0  0  0  0  0  0  0
    3.8971    0.7500    0.0000 C   0  0  0  0  0  0  0  0  0  0  0  0
    3.8971    2.2500    0.0000 C   0  0  0  0  0  0  0  0  0  0  0  0
    2.5981   -1.5000    0.0000 C   0  0  0  0  0  0  0  0  0  0  0  0
    1.2990   -2.2500    0.0000 O   0  0  0  0  0  0  0  0  0  0  0  0
    3.8971   -2.2500    0.0000 C   0  0  0  0  0  0  0  0  0  0  0  0
    3.8971   -3.7500    0.0000 C   0  0  0  0  0  0  0  0  0  0  0  0
    2.5981   -4.5000    0.0000 C   0  0  0  0  0  0  0  0  0  0  0  0
    3.3481   -5.7990    0.0000 F   0  0  0  0  0  0  0  0  0  0  0  0
    1.8481   -3.2010    0.0000 F   0  0  0  0  0  0  0  0  0  0  0  0
    1.2990   -5.2500    0.0000 C   0  0  0  0  0  0  0  0  0  0  0  0
    0.0000   -6.0000    0.0000 F   0  0  0  0  0  0  0  0  0  0  0  0
    2.0490   -6.5490    0.0000 F   0  0  0  0  0  0  0  0  0  0  0  0
    0.5490   -3.9510    0.0000 F   0  0  0  0  0  0  0  0  0  0  0  0
    5.1962   -1.5000    0.0000 C   0  0  0  0  0  0  0  0  0  0  0  0
    6.4952   -0.7500    0.0000 F   0  0  0  0  0  0  0  0  0  0  0  0
    5.9462   -2.7990    0.0000 F   0  0  0  0  0  0  0  0  0  0  0  0
    4.4462   -0.2010    0.0000 F   0  0  0  0  0  0  0  0  0  0  0  0
  1  2  1  0
  2  3  1  0
  3  4  1  0
  4  5  1  0
  3  6  1  0
  6  7  2  0
  6  8  1  0
  8  9  1  0
  9 10  1  0
 10 11  1  0
 10 12  1  0
 10 13  1  0
 13 14  1  0
 13 15  1  0
 13 16  1  0
  8 17  1  0
 17 18  1  0
 17 19  1  0
 17 20  1  0
M  END
$$$$

     RDKit          2D

 17 16  0  0  0  0  0  0  0  0999 V2000
    3.8971    0.7500    0.0000 O   0  0  0  0  0  0  0  0  0  0  0  0
    2.5981    1.5000    0.0000 N   0  0  0  0  0  0  0  0  0  0  0  0
    2.5981    3.0000    0.0000 O   0  0  0  0  0  0  0  0  0  0  0  0
    1.2990    0.7500    0.0000 C   0  0  0  0  0  0  0  0  0  0  0  0
    2.0490   -0.5490    0.0000 F   0  0  0  0  0  0  0  0  0  0  0  0
    0.5490    2.0490    0.0000 F   0  0  0  0  0  0  0  0  0  0  0  0
    0.0000    0.0000    0.0000 C   0  0  0  0  0  0  0  0  0  0  0  0
   -1.2990    0.7500    0.0000 O   0  0  0  0  0  0  0  0  0  0  0  0
   -2.5981    0.0000    0.0000 C   0  0  0  0  0  0  0  0  0  0  0  0
   -1.8481   -1.2990    0.0000 F   0  0  0  0  0  0  0  0  0  0  0  0
   -3.3481    1.2990    0.0000 F   0  0  0  0  0  0  0  0  0  0  0  0
   -3.8971   -0.7500    0.0000 C   0  0  0  0  0  0  0  0  0  0  0  0
   -5.1962    0.0000    0.0000 F   0  0  0  0  0  0  0  0  0  0  0  0
   -3.8971   -2.2500    0.0000 C   0  0  0  0  0  0  0  0  0  0  0  0
   -3.8971   -3.7500    0.0000 F   0  0  0  0  0  0  0  0  0  0  0  0
   -5.3971   -2.2500    0.0000 F   0  0  0  0  0  0  0  0  0  0  0  0
   -2.3971   -2.2500    0.0000 F   0  0  0  0  0  0  0  0  0  0  0  0
  1  2  2  0
  2  3  1  0
  2  4  1  0
  4  5  1  0
  4  6  1  0
  4  7  1  0
  7  8  1  0
  8  9  1  0
  9 10  1  0
  9 11  1  0
  9 12  1  0
 12 13  1  0
 12 14  1  0
 14 15  1  0
 14 16  1  0
 14 17  1  0
M  CHG  2   2   1   3  -1
M  END
$$$$

     RDKit          2D

 20 20  0  0  0  0  0  0  0  0999 V2000
    3.7500   -3.8971    0.0000 F   0  0  0  0  0  0  0  0  0  0  0  0
    4.5000   -2.5981    0.0000 C   0  0  0  0  0  0  0  0  0  0  0  0
    6.0000   -2.5981    0.0000 F   0  0  0  0  0  0  0  0  0  0  0  0
    3.7500   -1.2990    0.0000 C   0  0  0  0  0  0  0  0  0  0  0  0
    2.4510   -2.0490    0.0000 F   0  0  0  0  0  0  0  0  0  0  0  0
    5.0490   -0.5490    0.0000 F   0  0  0  0  0  0  0  0  0  0  0  0
    3.0000    0.0000    0.0000 O   0  0  0  0  0  0  0  0  0  0  0  0
    1.5000    0.0000    0.0000 C   0  0  0  0  0  0  0  0  0  0  0  0
    0.7500   -1.2990    0.0000 C   0  0  0  0  0  0  0  0  0  0  0  0
   -0.7500   -1.2990    0.0000 C   0  0  0  0  0  0  0  0  0  0  0  0
   -1.5000    0.0000    0.0000 C   0  0  0  0  0  0  0  0  0  0  0  0
   -0.7500    1.2990    0.0000 C   0  0  0  0  0  0  0  0  0  0  0  0
   -1.5000    2.5981    0.0000 O   0  0  0  0  0  0  0  0  0  0  0  0
   -0.7500    3.8971    0.0000 C   0  0  0  0  0  0  0  0  0  0  0  0
    0.5490    3.1471    0.0000 F   0  0  0  0  0  0  0  0  0  0  0  0
   -2.0490    4.6471    0.0000 F   0  0  0  0  0  0  0  0  0  0  0  0
    0.0000    5.1962    0.0000 C   0  0  0  0  0  0  0  0  0  0  0  0
    1.5000    5.1962    0.0000 F   0  0  0  0  0  0  0  0  0  0  0  0
   -0.7500    6.4952    0.0000 F   0  0  0  0  0  0  0  0  0  0  0  0
    0.7500    1.2990    0.0000 C   0  0  0  0  0  0  0  0  0  0  0  0
  1  2  1  0
  2  3  1  0
  2  4  1  0
  4  5  1  0
  4  6  1  0
  4  7  1  0
  7  8  1  0
  8  9  2  0
  9 10  1  0
 10 11  2  0
 11 12  1  0
 12 13  1  0
 13 14  1  0
 14 15  1  0
 14 16  1  0
 14 17  1  0
 17 18  1  0
 17 19  1  0
 12 20  2  0
 20  8  1  0
M  END
$$$$

     RDKit          2D

 13 12  0  0  0  0  0  0  0  0999 V2000
   -0.0000   -1.5000    0.0000 O   0  0  0  0  0  0  0  0  0  0  0  0
    0.0000    0.0000    0.0000 C   0  0  0  0  0  0  0  0  0  0  0  0
   -1.2990    0.7500    0.0000 O   0  0  0  0  0  0  0  0  0  0  0  0
    1.2990    0.7500    0.0000 C   0  0  0  0  0  0  0  0  0  0  0  0
    1.6451   -0.0653    0.0000 F   0  0  0  0  0  0  0  0  0  0  0  0
    0.5490    2.0490    0.0000 F   0  0  0  0  0  0  0  0  0  0  0  0
    2.5981    1.5000    0.0000 C   0  0  0  0  0  0  0  0  0  0  0  0
    3.8971    2.2500    0.0000 F   0  0  0  0  0  0  0  0  0  0  0  0
    1.8481    2.7990    0.0000 F   0  0  0  0  0  0  0  0  0  0  0  0
    3.3481    0.2010    0.0000 S   0  0  0  0  0  0  0  0  0  0  0  0
    4.6471    0.9510    0.0000 O   0  0  0  0  0  0  0  0  0  0  0  0
    2.7114   -0.2788    0.0000 O   0  0  0  0  0  0  0  0  0  0  0  0
    4.0981   -1.0981    0.0000 O   0  0  0  0  0  0  0  0  0  0  0  0
  1  2  2  0
  2  3  1  0
  2  4  1  0
  4  5  1  0
  4  6  1  0
  4  7  1  0
  7  8  1  0
  7  9  1  0
  7 10  1  0
 10 11  2  0
 10 12  2  0
 10 13  1  0
M  END
$$$$

     RDKit          2D

 16 15  0  0  0  0  0  0  0  0999 V2000
   -0.1828   -1.4888    0.0000 O   0  0  0  0  0  0  0  0  0  0  0  0
    0.0000    0.0000    0.0000 C   0  0  0  0  0  0  0  0  0  0  0  0
   -1.3808    0.5861    0.0000 O   0  0  0  0  0  0  0  0  0  0  0  0
    1.2990    0.7500    0.0000 C   0  0  0  0  0  0  0  0  0  0  0  0
    2.5981    1.5000    0.0000 C   0  0  0  0  0  0  0  0  0  0  0  0
    3.8971    2.2500    0.0000 F   0  0  0  0  0  0  0  0  0  0  0  0
    2.2520    2.3153    0.0000 F   0  0  0  0  0  0  0  0  0  0  0  0
    3.1311    0.7926    0.0000 F   0  0  0  0  0  0  0  0  0  0  0  0
    2.0490   -0.5490    0.0000 C   0  0  0  0  0  0  0  0  0  0  0  0
    2.7990   -1.8481    0.0000 F   0  0  0  0  0  0  0  0  0  0  0  0
    2.8644   -0.2030    0.0000 F   0  0  0  0  0  0  0  0  0  0  0  0
    0.8511   -1.4518    0.0000 F   0  0  0  0  0  0  0  0  0  0  0  0
    0.5490    2.0490    0.0000 C   0  0  0  0  0  0  0  0  0  0  0  0
   -0.2010    3.3481    0.0000 F   0  0  0  0  0  0  0  0  0  0  0  0
    1.2564    2.5821    0.0000 F   0  0  0  0  0  0  0  0  0  0  0  0
   -0.8317    1.4630    0.0000 F   0  0  0  0  0  0  0  0  0  0  0  0
  1  2  2  0
  2  3  1  0
  2  4  1  0
  4  5  1  0
  5  6  1  0
  5  7  1  0
  5  8  1  0
  4  9  1  0
  9 10  1  0
  9 11  1  0
  9 12  1  0
  4 13  1  0
 13 14  1  0
 13 15  1  0
 13 16  1  0
M  END
$$$$

     RDKit          2D

 19 18  0  0  0  0  0  0  0  0999 V2000
    0.0000    0.0000    0.0000 C   0  0  0  0  0  0  0  0  0  0  0  0
    1.2990    0.7500    0.0000 C   0  0  0  0  0  0  0  0  0  0  0  0
    2.5981   -0.0000    0.0000 O   0  0  0  0  0  0  0  0  0  0  0  0
    3.8971    0.7500    0.0000 C   0  0  0  0  0  0  0  0  0  0  0  0
    3.1471    2.0490    0.0000 F   0  0  0  0  0  0  0  0  0  0  0  0
    4.6471   -0.5490    0.0000 F   0  0  0  0  0  0  0  0  0  0  0  0
    5.1962    1.5000    0.0000 C   0  0  0  0  0  0  0  0  0  0  0  0
    5.9462    0.2010    0.0000 F   0  0  0  0  0  0  0  0  0  0  0  0
    4.4462    2.7990    0.0000 F   0  0  0  0  0  0  0  0  0  0  0  0
    6.4952    2.2500    0.0000 C   0  0  0  0  0  0  0  0  0  0  0  0
    7.2452    0.9510    0.0000 F   0  0  0  0  0  0  0  0  0  0  0  0
    5.7452    3.5490    0.0000 F   0  0  0  0  0  0  0  0  0  0  0  0
    7.7942    3.0000    0.0000 C   0  0  0  0  0  0  0  0  0  0  0  0
    7.0442    4.2990    0.0000 F   0  0  0  0  0  0  0  0  0  0  0  0
    8.5442    1.7010    0.0000 F   0  0  0  0  0  0  0  0  0  0  0  0
    9.0933    3.7500    0.0000 C   0  0  0  0  0  0  0  0  0  0  0  0
   10.3923    4.5000    0.0000 F   0  0  0  0  0  0  0  0  0  0  0  0
    9.8433    2.4510    0.0000 F   0  0  0  0  0  0  0  0  0  0  0  0
    8.3433    5.0490    0.0000 F   0  0  0  0  0  0  0  0  0  0  0  0
  1  2  1  0
  2  3  1  0
  3  4  1  0
  4  5  1  0
  4  6  1  0
  4  7  1  0
  7  8  1  0
  7  9  1  0
  7 10  1  0
 10 11  1  0
 10 12  1  0
 10 13  1  0
 13 14  1  0
 13 15  1  0
 13 16  1  0
 16 17  1  0
 16 18  1  0
 16 19  1  0
M  END
$$$$

     RDKit          2D

 18 18  0  0  0  0  0  0  0  0999 V2000
    3.0000    1.5000    0.0000 O   0  0  0  0  0  0  0  0  0  0  0  0
    3.0000    0.0000    0.0000 C   0  0  0  0  0  0  0  0  0  0  0  0
    1.5000    0.0000    0.0000 C   0  0  0  0  0  0  0  0  0  0  0  0
    0.7500   -1.2990    0.0000 C   0  0  0  0  0  0  0  0  0  0  0  0
   -0.7500   -1.2990    0.0000 C   0  0  0  0  0  0  0  0  0  0  0  0
   -1.5000    0.0000    0.0000 C   0  0  0  0  0  0  0  0  0  0  0  0
   -3.0000    0.0000    0.0000 C   0  0  0  0  0  0  0  0  0  0  0  0
   -3.7500    1.2990    0.0000 Br  0  0  0  0  0  0  0  0  0  0  0  0
   -0.7500    1.2990    0.0000 C   0  0  0  0  0  0  0  0  0  0  0  0
    0.7500    1.2990    0.0000 C   0  0  0  0  0  0  0  0  0  0  0  0
    4.5000    0.0000    0.0000 C   0  0  0  0  0  0  0  0  0  0  0  0
    6.0000    0.0000    0.0000 F   0  0  0  0  0  0  0  0  0  0  0  0
    4.5000    1.5000    0.0000 F   0  0  0  0  0  0  0  0  0  0  0  0
    4.6080   -0.8791    0.0000 F   0  0  0  0  0  0  0  0  0  0  0  0
    3.0000   -1.5000    0.0000 C   0  0  0  0  0  0  0  0  0  0  0  0
    3.0000   -3.0000    0.0000 F   0  0  0  0  0  0  0  0  0  0  0  0
    1.5446   -1.8630    0.0000 F   0  0  0  0  0  0  0  0  0  0  0  0
    3.8791   -1.6080    0.0000 F   0  0  0  0  0  0  0  0  0  0  0  0
  1  2  1  0
  2  3  1  0
  3  4  2  0
  4  5  1  0
  5  6  2  0
  6  7  1  0
  7  8  1  0
  6  9  1  0
  9 10  2  0
  2 11  1  0
 11 12  1  0
 11 13  1  0
 11 14  1  0
  2 15  1  0
 15 16  1  0
 15 17  1  0
 15 18  1  0
 10  3  1  0
M  END
$$$$

     RDKit          2D

 21 21  0  0  0  0  0  0  0  0999 V2000
    3.0000    0.0000    0.0000 N   0  0  0  0  0  0  0  0  0  0  0  0
    1.5000    0.0000    0.0000 C   0  0  0  0  0  0  0  0  0  0  0  0
    0.7500   -1.2990    0.0000 C   0  0  0  0  0  0  0  0  0  0  0  0
   -0.7500   -1.2990    0.0000 C   0  0  0  0  0  0  0  0  0  0  0  0
   -1.5000    0.0000    0.0000 C   0  0  0  0  0  0  0  0  0  0  0  0
   -3.0000    0.0000    0.0000 C   0  0  0  0  0  0  0  0  0  0  0  0
   -3.0000    1.5000    0.0000 F   0  0  0  0  0  0  0  0  0  0  0  0
   -3.0000   -1.5000    0.0000 F   0  0  0  0  0  0  0  0  0  0  0  0
   -4.5000    0.0000    0.0000 C   0  0  0  0  0  0  0  0  0  0  0  0
   -4.5000   -1.5000    0.0000 F   0  0  0  0  0  0  0  0  0  0  0  0
   -4.5000    1.5000    0.0000 F   0  0  0  0  0  0  0  0  0  0  0  0
   -6.0000    0.0000    0.0000 C   0  0  0  0  0  0  0  0  0  0  0  0
   -6.0000    1.5000    0.0000 F   0  0  0  0  0  0  0  0  0  0  0  0
   -6.0000   -1.5000    0.0000 F   0  0  0  0  0  0  0  0  0  0  0  0
   -7.5000    0.0000    0.0000 C   0  0  0  0  0  0  0  0  0  0  0  0
   -9.0000    0.0000    0.0000 F   0  0  0  0  0  0  0  0  0  0  0  0
   -7.5000   -1.5000    0.0000 F   0  0  0  0  0  0  0  0  0  0  0  0
   -7.5000    1.5000    0.0000 F   0  0  0  0  0  0  0  0  0  0  0  0
   -0.7500    1.2990    0.0000 C   0  0  0  0  0  0  0  0  0  0  0  0
    0.7500    1.2990    0.0000 C   0  0  0  0  0  0  0  0  0  0  0  0
    1.5000    2.5981    0.0000 F   0  0  0  0  0  0  0  0  0  0  0  0
  1  2  1  0
  2  3  2  0
  3  4  1  0
  4  5  2  0
  5  6  1  0
  6  7  1  0
  6  8  1  0
  6  9  1  0
  9 10  1  0
  9 11  1  0
  9 12  1  0
 12 13  1  0
 12 14  1  0
 12 15  1  0
 15 16  1  0
 15 17  1  0
 15 18  1  0
  5 19  1  0
 19 20  2  0
 20 21  1  0
 20  2  1  0
M  END
$$$$

     RDKit          2D

 32 30  0  0  0  0  0  0  0  0999 V2000
    5.1962    1.5000    0.0000 F   0  0  0  0  0  0  0  0  0  0  0  0
    3.8971    0.7500    0.0000 C   0  0  0  0  0  0  0  0  0  0  0  0
    4.6471   -0.5490    0.0000 F   0  0  0  0  0  0  0  0  0  0  0  0
    3.1471    2.0490    0.0000 F   0  0  0  0  0  0  0  0  0  0  0  0
    2.5981   -0.0000    0.0000 C   0  0  0  0  0  0  0  0  0  0  0  0
    1.2990    0.7500    0.0000 O   0  0  0  0  0  0  0  0  0  0  0  0
    0.0000    0.0000    0.0000 B   0  0  0  0  0  3  0  0  0  0  0  0
   -1.2990    0.7500    0.0000 O   0  0  0  0  0  0  0  0  0  0  0  0
   -1.2990    2.2500    0.0000 C   0  0  0  0  0  0  0  0  0  0  0  0
   -2.5981    3.0000    0.0000 C   0  0  0  0  0  0  0  0  0  0  0  0
   -3.8971    3.7500    0.0000 F   0  0  0  0  0  0  0  0  0  0  0  0
   -1.8481    4.2990    0.0000 F   0  0  0  0  0  0  0  0  0  0  0  0
   -3.3481    1.7010    0.0000 F   0  0  0  0  0  0  0  0  0  0  0  0
    0.0000    3.0000    0.0000 C   0  0  0  0  0  0  0  0  0  0  0  0
    1.2990    3.7500    0.0000 F   0  0  0  0  0  0  0  0  0  0  0  0
   -0.7500    4.2990    0.0000 F   0  0  0  0  0  0  0  0  0  0  0  0
    0.7500    1.7010    0.0000 F   0  0  0  0  0  0  0  0  0  0  0  0
   -0.0000   -1.5000    0.0000 O   0  0  0  0  0  0  0  0  0  0  0  0
   -1.2990   -2.2500    0.0000 C   0  0  0  0  0  0  0  0  0  0  0  0
   -1.2990   -3.7500    0.0000 C   0  0  0  0  0  0  0  0  0  0  0  0
   -1.2990   -5.2500    0.0000 F   0  0  0  0  0  0  0  0  0  0  0  0
   -2.7990   -3.7500    0.0000 F   0  0  0  0  0  0  0  0  0  0  0  0
    0.2010   -3.7500    0.0000 F   0  0  0  0  0  0  0  0  0  0  0  0
   -2.5981   -1.5000    0.0000 C   0  0  0  0  0  0  0  0  0  0  0  0
   -3.8971   -0.7500    0.0000 F   0  0  0  0  0  0  0  0  0  0  0  0
   -3.3481   -2.7990    0.0000 F   0  0  0  0  0  0  0  0  0  0  0  0
   -1.8481   -0.2010    0.0000 F   0  0  0  0  0  0  0  0  0  0  0  0
    2.5981   -1.5000    0.0000 C   0  0  0  0  0  0  0  0  0  0  0  0
    2.5981   -3.0000    0.0000 F   0  0  0  0  0  0  0  0  0  0  0  0
    4.0981   -1.5000    0.0000 F   0  0  0  0  0  0  0  0  0  0  0  0
    1.0981   -1.5000    0.0000 F   0  0  0  0  0  0  0  0  0  0  0  0
    6.1962    0.0000    0.0000 Na  0  0  0  0  0 15  0  0  0  0  0  0
  1  2  1  0
  2  3  1  0
  2  4  1  0
  2  5  1  0
  5  6  1  0
  6  7  1  0
  7  8  1  0
  8  9  1  0
  9 10  1  0
 10 11  1  0
 10 12  1  0
 10 13  1  0
  9 14  1  0
 14 15  1  0
 14 16  1  0
 14 17  1  0
  7 18  1  0
 18 19  1  0
 19 20  1  0
 20 21  1  0
 20 22  1  0
 20 23  1  0
 19 24  1  0
 24 25  1  0
 24 26  1  0
 24 27  1  0
  5 28  1  0
 28 29  1  0
 28 30  1  0
 28 31  1  0
M  CHG  2   7  -1  32   1
M  RAD  1   7   2
M  END
$$$$

     RDKit          2D

 18 18  0  0  0  0  0  0  0  0999 V2000
    3.7500   -1.2990    0.0000 C   0  0  0  0  0  0  0  0  0  0  0  0
    3.0000    0.0000    0.0000 O   0  0  0  0  0  0  0  0  0  0  0  0
    1.5000    0.0000    0.0000 C   0  0  0  0  0  0  0  0  0  0  0  0
    0.7500   -1.2990    0.0000 C   0  0  0  0  0  0  0  0  0  0  0  0
   -0.7500   -1.2990    0.0000 C   0  0  0  0  0  0  0  0  0  0  0  0
   -1.5000    0.0000    0.0000 C   0  0  0  0  0  0  0  0  0  0  0  0
   -0.7500    1.2990    0.0000 C   0  0  0  0  0  0  0  0  0  0  0  0
    0.7500    1.2990    0.0000 C   0  0  0  0  0  0  0  0  0  0  0  0
    1.5000    2.5981    0.0000 C   0  0  0  0  0  0  0  0  0  0  0  0
    0.2010    3.3481    0.0000 Br  0  0  0  0  0  0  0  0  0  0  0  0
    2.2500    3.8971    0.0000 C   0  0  0  0  0  0  0  0  0  0  0  0
    3.0000    5.1962    0.0000 F   0  0  0  0  0  0  0  0  0  0  0  0
    0.9510    4.6471    0.0000 F   0  0  0  0  0  0  0  0  0  0  0  0
    3.0653    3.5511    0.0000 F   0  0  0  0  0  0  0  0  0  0  0  0
    2.7990    1.8481    0.0000 C   0  0  0  0  0  0  0  0  0  0  0  0
    4.0981    1.0981    0.0000 F   0  0  0  0  0  0  0  0  0  0  0  0
    3.3321    2.5554    0.0000 F   0  0  0  0  0  0  0  0  0  0  0  0
    2.4977    0.7969    0.0000 F   0  0  0  0  0  0  0  0  0  0  0  0
  1  2  1  0
  2  3  1  0
  3  4  2  0
  4  5  1  0
  5  6  2  0
  6  7  1  0
  7  8  2  0
  8  9  1  0
  9 10  1  0
  9 11  1  0
 11 12  1  0
 11 13  1  0
 11 14  1  0
  9 15  1  0
 15 16  1  0
 15 17  1  0
 15 18  1  0
  8  3  1  0
M  END
$$$$

     RDKit          2D

 22 23  0  0  0  0  0  0  0  0999 V2000
    3.0000   -2.5981    0.0000 O   0  0  0  0  0  0  0  0  0  0  0  0
    1.5000   -2.5981    0.0000 C   0  0  0  0  0  0  0  0  0  0  0  0
    0.7500   -1.2990    0.0000 C   0  0  0  0  0  0  0  0  0  0  0  0
    1.5000    0.0000    0.0000 C   0  0  0  0  0  0  0  0  0  0  0  0
    0.7500    1.2990    0.0000 C   0  0  0  0  0  0  0  0  0  0  0  0
   -0.7500    1.2990    0.0000 C   0  0  0  0  0  0  0  0  0  0  0  0
   -1.5000    2.5981    0.0000 Cl  0  0  0  0  0  0  0  0  0  0  0  0
   -1.5000    0.0000    0.0000 C   0  0  0  0  0  0  0  0  0  0  0  0
   -0.7500   -1.2990    0.0000 C   0  0  0  0  0  0  0  0  0  0  0  0
    0.7500   -3.8971    0.0000 C   0  0  0  0  0  0  0  0  0  0  0  0
   -0.7500   -3.8971    0.0000 C   0  0  0  0  0  0  0  0  0  0  0  0
   -1.5000   -5.1962    0.0000 C   0  0  0  0  0  0  0  0  0  0  0  0
   -0.7500   -6.4952    0.0000 C   0  0  0  0  0  0  0  0  0  0  0  0
   -1.5000   -7.7942    0.0000 O   0  0  0  0  0  0  0  0  0  0  0  0
   -3.0000   -7.7942    0.0000 C   0  0  0  0  0  0  0  0  0  0  0  0
   -3.0000   -6.2942    0.0000 F   0  0  0  0  0  0  0  0  0  0  0  0
   -3.0000   -9.2942    0.0000 F   0  0  0  0  0  0  0  0  0  0  0  0
   -4.5000   -7.7942    0.0000 C   0  0  0  0  0  0  0  0  0  0  0  0
   -5.2500   -6.4952    0.0000 F   0  0  0  0  0  0  0  0  0  0  0  0
   -5.2500   -9.0933    0.0000 F   0  0  0  0  0  0  0  0  0  0  0  0
    0.7500   -6.4952    0.0000 C   0  0  0  0  0  0  0  0  0  0  0  0
    1.5000   -5.1962    0.0000 C   0  0  0  0  0  0  0  0  0  0  0  0
  1  2  2  0
  2  3  1  0
  3  4  2  0
  4  5  1  0
  5  6  2  0
  6  7  1  0
  6  8  1  0
  8  9  2  0
  2 10  1  0
 10 11  2  0
 11 12  1  0
 12 13  2  0
 13 14  1  0
 14 15  1  0
 15 16  1  0
 15 17  1  0
 15 18  1  0
 18 19  1  0
 18 20  1  0
 13 21  1  0
 21 22  2  0
  9  3  1  0
 22 10  1  0
M  END
$$$$

     RDKit          2D

 28 27  0  0  0  0  0  0  0  0999 V2000
   -1.2990    0.7500    0.0000 O   0  0  0  0  0  0  0  0  0  0  0  0
    0.0000    0.0000    0.0000 C   0  0  0  0  0  0  0  0  0  0  0  0
   -0.0000   -1.5000    0.0000 F   0  0  0  0  0  0  0  0  0  0  0  0
    1.2990    0.7500    0.0000 C   0  0  0  0  0  0  0  0  0  0  0  0
    2.0490   -0.5490    0.0000 F   0  0  0  0  0  0  0  0  0  0  0  0
    0.5490    2.0490    0.0000 F   0  0  0  0  0  0  0  0  0  0  0  0
    2.5981    1.5000    0.0000 C   0  0  0  0  0  0  0  0  0  0  0  0
    1.8481    2.7990    0.0000 F   0  0  0  0  0  0  0  0  0  0  0  0
    3.3481    0.2010    0.0000 F   0  0  0  0  0  0  0  0  0  0  0  0
    3.8971    2.2500    0.0000 C   0  0  0  0  0  0  0  0  0  0  0  0
    3.1471    3.5490    0.0000 F   0  0  0  0  0  0  0  0  0  0  0  0
    4.6471    0.9510    0.0000 F   0  0  0  0  0  0  0  0  0  0  0  0
    5.1962    3.0000    0.0000 C   0  0  0  0  0  0  0  0  0  0  0  0
    5.9462    1.7010    0.0000 F   0  0  0  0  0  0  0  0  0  0  0  0
    4.4462    4.2990    0.0000 F   0  0  0  0  0  0  0  0  0  0  0  0
    6.4952    3.7500    0.0000 C   0  0  0  0  0  0  0  0  0  0  0  0
    5.9621    4.4574    0.0000 F   0  0  0  0  0  0  0  0  0  0  0  0
    7.2452    2.4510    0.0000 F   0  0  0  0  0  0  0  0  0  0  0  0
    7.7942    4.5000    0.0000 C   0  0  0  0  0  0  0  0  0  0  0  0
    8.5442    3.2010    0.0000 F   0  0  0  0  0  0  0  0  0  0  0  0
    9.0933    5.2500    0.0000 C   0  0  0  0  0  0  0  0  0  0  0  0
   10.3923    6.0000    0.0000 F   0  0  0  0  0  0  0  0  0  0  0  0
    9.8433    3.9510    0.0000 F   0  0  0  0  0  0  0  0  0  0  0  0
    8.7472    6.0653    0.0000 F   0  0  0  0  0  0  0  0  0  0  0  0
    7.0442    5.7990    0.0000 C   0  0  0  0  0  0  0  0  0  0  0  0
    6.2942    7.0981    0.0000 F   0  0  0  0  0  0  0  0  0  0  0  0
    7.7516    6.3321    0.0000 F   0  0  0  0  0  0  0  0  0  0  0  0
    6.2289    5.4530    0.0000 F   0  0  0  0  0  0  0  0  0  0  0  0
  1  2  2  0
  2  3  1  0
  2  4  1  0
  4  5  1  0
  4  6  1  0
  4  7  1  0
  7  8  1  0
  7  9  1  0
  7 10  1  0
 10 11  1  0
 10 12  1  0
 10 13  1  0
 13 14  1  0
 13 15  1  0
 13 16  1  0
 16 17  1  0
 16 18  1  0
 16 19  1  0
 19 20  1  0
 19 21  1  0
 21 22  1  0
 21 23  1  0
 21 24  1  0
 19 25  1  0
 25 26  1  0
 25 27  1  0
 25 28  1  0
M  END
$$$$

     RDKit          2D

 12 11  0  0  0  0  0  0  0  0999 V2000
    2.5981    1.5000    0.0000 F   0  0  0  0  0  0  0  0  0  0  0  0
    1.2990    0.7500    0.0000 C   0  0  0  0  0  0  0  0  0  0  0  0
    2.0490   -0.5490    0.0000 F   0  0  0  0  0  0  0  0  0  0  0  0
    0.5490    2.0490    0.0000 F   0  0  0  0  0  0  0  0  0  0  0  0
    0.0000    0.0000    0.0000 C   0  0  0  0  0  0  0  0  0  0  0  0
   -0.0000   -1.5000    0.0000 C   0  0  0  0  0  0  0  0  0  0  0  0
   -1.2990   -2.2500    0.0000 Cl  0  0  0  0  0  0  0  0  0  0  0  0
    1.2990   -2.2500    0.0000 Br  0  0  0  0  0  0  0  0  0  0  0  0
   -1.2990    0.7500    0.0000 C   0  0  0  0  0  0  0  0  0  0  0  0
   -2.5981    1.5000    0.0000 F   0  0  0  0  0  0  0  0  0  0  0  0
   -2.0490   -0.5490    0.0000 F   0  0  0  0  0  0  0  0  0  0  0  0
   -0.5490    2.0490    0.0000 F   0  0  0  0  0  0  0  0  0  0  0  0
  1  2  1  0
  2  3  1  0
  2  4  1  0
  2  5  1  0
  5  6  1  0
  6  7  1  0
  6  8  1  0
  5  9  1  0
  9 10  1  0
  9 11  1  0
  9 12  1  0
M  END
$$$$

     RDKit          2D

 22 21  0  0  0  0  0  0  0  0999 V2000
   -1.2990    0.7500    0.0000 O   0  0  0  0  0  0  0  0  0  0  0  0
    0.0000    0.0000    0.0000 C   0  0  0  0  0  0  0  0  0  0  0  0
   -0.0000   -1.5000    0.0000 F   0  0  0  0  0  0  0  0  0  0  0  0
    1.2990    0.7500    0.0000 C   0  0  0  0  0  0  0  0  0  0  0  0
    2.0490   -0.5490    0.0000 F   0  0  0  0  0  0  0  0  0  0  0  0
    0.5490    2.0490    0.0000 F   0  0  0  0  0  0  0  0  0  0  0  0
    2.5981    1.5000    0.0000 C   0  0  0  0  0  0  0  0  0  0  0  0
    3.3481    0.2010    0.0000 F   0  0  0  0  0  0  0  0  0  0  0  0
    1.8481    2.7990    0.0000 F   0  0  0  0  0  0  0  0  0  0  0  0
    3.8971    2.2500    0.0000 C   0  0  0  0  0  0  0  0  0  0  0  0
    3.3640    2.9574    0.0000 F   0  0  0  0  0  0  0  0  0  0  0  0
    4.6471    0.9510    0.0000 F   0  0  0  0  0  0  0  0  0  0  0  0
    5.1962    3.0000    0.0000 C   0  0  0  0  0  0  0  0  0  0  0  0
    5.9462    1.7010    0.0000 F   0  0  0  0  0  0  0  0  0  0  0  0
    6.4952    3.7500    0.0000 C   0  0  0  0  0  0  0  0  0  0  0  0
    7.7942    4.5000    0.0000 F   0  0  0  0  0  0  0  0  0  0  0  0
    7.2452    2.4510    0.0000 F   0  0  0  0  0  0  0  0  0  0  0  0
    6.1491    4.5653    0.0000 F   0  0  0  0  0  0  0  0  0  0  0  0
    4.4462    4.2990    0.0000 C   0  0  0  0  0  0  0  0  0  0  0  0
    3.6962    5.5981    0.0000 F   0  0  0  0  0  0  0  0  0  0  0  0
    5.1535    4.8321    0.0000 F   0  0  0  0  0  0  0  0  0  0  0  0
    3.6308    3.9530    0.0000 F   0  0  0  0  0  0  0  0  0  0  0  0
  1  2  2  0
  2  3  1  0
  2  4  1  0
  4  5  1  0
  4  6  1  0
  4  7  1  0
  7  8  1  0
  7  9  1  0
  7 10  1  0
 10 11  1  0
 10 12  1  0
 10 13  1  0
 13 14  1  0
 13 15  1  0
 15 16  1  0
 15 17  1  0
 15 18  1  0
 13 19  1  0
 19 20  1  0
 19 21  1  0
 19 22  1  0
M  END
$$$$

     RDKit          2D

 14 13  0  0  0  0  0  0  0  0999 V2000
   -1.2990    0.7500    0.0000 F   0  0  0  0  0  0  0  0  0  0  0  0
    0.0000    0.0000    0.0000 C   0  0  0  0  0  0  0  0  0  0  0  0
   -0.0000   -1.5000    0.0000 F   0  0  0  0  0  0  0  0  0  0  0  0
    1.2990    0.7500    0.0000 C   0  0  0  0  0  0  0  0  0  0  0  0
    2.0490   -0.5490    0.0000 F   0  0  0  0  0  0  0  0  0  0  0  0
    0.5490    2.0490    0.0000 F   0  0  0  0  0  0  0  0  0  0  0  0
    2.5981    1.5000    0.0000 C   0  0  0  0  0  0  0  0  0  0  0  0
    1.8481    2.7990    0.0000 F   0  0  0  0  0  0  0  0  0  0  0  0
    3.3481    0.2010    0.0000 F   0  0  0  0  0  0  0  0  0  0  0  0
    3.8971    2.2500    0.0000 O   0  0  0  0  0  0  0  0  0  0  0  0
    5.1962    1.5000    0.0000 C   0  0  0  0  0  0  0  0  0  0  0  0
    6.4952    0.7500    0.0000 F   0  0  0  0  0  0  0  0  0  0  0  0
    5.9462    2.7990    0.0000 F   0  0  0  0  0  0  0  0  0  0  0  0
    4.4462    0.2010    0.0000 F   0  0  0  0  0  0  0  0  0  0  0  0
  1  2  1  0
  2  3  1  0
  2  4  1  0
  4  5  1  0
  4  6  1  0
  4  7  1  0
  7  8  1  0
  7  9  1  0
  7 10  1  0
 10 11  1  0
 11 12  1  0
 11 13  1  0
 11 14  1  0
M  END
$$$$

     RDKit          2D

 17 17  0  0  0  0  0  0  0  0999 V2000
    6.0000   -2.5981    0.0000 F   0  0  0  0  0  0  0  0  0  0  0  0
    4.5000   -2.5981    0.0000 C   0  0  0  0  0  0  0  0  0  0  0  0
    3.7500   -3.8971    0.0000 C   0  0  0  0  0  0  0  0  0  0  0  0
    3.0000   -5.1962    0.0000 F   0  0  0  0  0  0  0  0  0  0  0  0
    5.0490   -4.6471    0.0000 F   0  0  0  0  0  0  0  0  0  0  0  0
    2.4510   -3.1471    0.0000 F   0  0  0  0  0  0  0  0  0  0  0  0
    3.7500   -1.2990    0.0000 C   0  0  0  0  0  0  0  0  0  0  0  0
    2.4510   -2.0490    0.0000 F   0  0  0  0  0  0  0  0  0  0  0  0
    5.0490   -0.5490    0.0000 F   0  0  0  0  0  0  0  0  0  0  0  0
    3.0000    0.0000    0.0000 O   0  0  0  0  0  0  0  0  0  0  0  0
    1.5000    0.0000    0.0000 C   0  0  0  0  0  0  0  0  0  0  0  0
    0.7500   -1.2990    0.0000 C   0  0  0  0  0  0  0  0  0  0  0  0
   -0.7500   -1.2990    0.0000 C   0  0  0  0  0  0  0  0  0  0  0  0
   -1.5000    0.0000    0.0000 C   0  0  0  0  0  0  0  0  0  0  0  0
   -0.7500    1.2990    0.0000 C   0  0  0  0  0  0  0  0  0  0  0  0
    0.7500    1.2990    0.0000 C   0  0  0  0  0  0  0  0  0  0  0  0
    1.5000    2.5981    0.0000 Br  0  0  0  0  0  0  0  0  0  0  0  0
  1  2  1  0
  2  3  1  0
  3  4  1  0
  3  5  1  0
  3  6  1  0
  2  7  1  0
  7  8  1  0
  7  9  1  0
  7 10  1  0
 10 11  1  0
 11 12  2  0
 12 13  1  0
 13 14  2  0
 14 15  1  0
 15 16  2  0
 16 17  1  0
 16 11  1  0
M  END
$$$$

     RDKit          2D

 61 60  0  0  0  0  0  0  0  0999 V2000
   -1.2990    0.7500    0.0000 O   0  0  0  0  0  0  0  0  0  0  0  0
    0.0000    0.0000    0.0000 C   0  0  0  0  0  0  0  0  0  0  0  0
   -0.0000   -1.5000    0.0000 O   0  0  0  0  0  0  0  0  0  0  0  0
   -1.2990   -2.2500    0.0000 C   0  0  0  0  0  0  0  0  0  0  0  0
   -2.5981   -1.5000    0.0000 O   0  0  0  0  0  0  0  0  0  0  0  0
   -1.2990   -3.7500    0.0000 C   0  0  0  0  0  0  0  0  0  0  0  0
   -2.7990   -3.7500    0.0000 F   0  0  0  0  0  0  0  0  0  0  0  0
    0.2010   -3.7500    0.0000 F   0  0  0  0  0  0  0  0  0  0  0  0
   -1.2990   -5.2500    0.0000 C   0  0  0  0  0  0  0  0  0  0  0  0
    0.2010   -5.2500    0.0000 F   0  0  0  0  0  0  0  0  0  0  0  0
   -2.7990   -5.2500    0.0000 F   0  0  0  0  0  0  0  0  0  0  0  0
   -1.2990   -6.7500    0.0000 C   0  0  0  0  0  0  0  0  0  0  0  0
   -2.7990   -6.7500    0.0000 F   0  0  0  0  0  0  0  0  0  0  0  0
    0.2010   -6.7500    0.0000 F   0  0  0  0  0  0  0  0  0  0  0  0
   -1.2990   -8.2500    0.0000 C   0  0  0  0  0  0  0  0  0  0  0  0
    0.2010   -8.2500    0.0000 F   0  0  0  0  0  0  0  0  0  0  0  0
   -2.7990   -8.2500    0.0000 F   0  0  0  0  0  0  0  0  0  0  0  0
   -1.2990   -9.7500    0.0000 C   0  0  0  0  0  0  0  0  0  0  0  0
   -2.7990   -9.7500    0.0000 F   0  0  0  0  0  0  0  0  0  0  0  0
    0.2010   -9.7500    0.0000 F   0  0  0  0  0  0  0  0  0  0  0  0
   -1.2990  -11.2500    0.0000 C   0  0  0  0  0  0  0  0  0  0  0  0
    0.2010  -11.2500    0.0000 F   0  0  0  0  0  0  0  0  0  0  0  0
   -2.7990  -11.2500    0.0000 F   0  0  0  0  0  0  0  0  0  0  0  0
   -1.2990  -12.7500    0.0000 C   0  0  0  0  0  0  0  0  0  0  0  0
   -2.7990  -12.7500    0.0000 F   0  0  0  0  0  0  0  0  0  0  0  0
    0.2010  -12.7500    0.0000 F   0  0  0  0  0  0  0  0  0  0  0  0
   -1.2990  -14.2500    0.0000 C   0  0  0  0  0  0  0  0  0  0  0  0
    0.2010  -14.2500    0.0000 F   0  0  0  0  0  0  0  0  0  0  0  0
   -2.7990  -14.2500    0.0000 F   0  0  0  0  0  0  0  0  0  0  0  0
   -1.2990  -15.7500    0.0000 C   0  0  0  0  0  0  0  0  0  0  0  0
   -1.2990  -17.2500    0.0000 F   0  0  0  0  0  0  0  0  0  0  0  0
   -2.7990  -15.7500    0.0000 F   0  0  0  0  0  0  0  0  0  0  0  0
    0.2010  -15.7500    0.0000 F   0  0  0  0  0  0  0  0  0  0  0  0
    1.2990    0.7500    0.0000 C   0  0  0  0  0  0  0  0  0  0  0  0
    2.0490   -0.5490    0.0000 F   0  0  0  0  0  0  0  0  0  0  0  0
    0.5490    2.0490    0.0000 F   0  0  0  0  0  0  0  0  0  0  0  0
    2.5981    1.5000    0.0000 C   0  0  0  0  0  0  0  0  0  0  0  0
    1.8481    2.7990    0.0000 F   0  0  0  0  0  0  0  0  0  0  0  0
    3.3481    0.2010    0.0000 F   0  0  0  0  0  0  0  0  0  0  0  0
    3.8971    2.2500    0.0000 C   0  0  0  0  0  0  0  0  0  0  0  0
    4.6471    0.9510    0.0000 F   0  0  0  0  0  0  0  0  0  0  0  0
    3.1471    3.5490    0.0000 F   0  0  0  0  0  0  0  0  0  0  0  0
    5.1962    3.0000    0.0000 C   0  0  0  0  0  0  0  0  0  0  0  0
    4.4462    4.2990    0.0000 F   0  0  0  0  0  0  0  0  0  0  0  0
    5.9462    1.7010    0.0000 F   0  0  0  0  0  0  0  0  0  0  0  0
    6.4952    3.7500    0.0000 C   0  0  0  0  0  0  0  0  0  0  0  0
    7.2452    2.4510    0.0000 F   0  0  0  0  0  0  0  0  0  0  0  0
    5.7452    5.0490    0.0000 F   0  0  0  0  0  0  0  0  0  0  0  0
    7.7942    4.5000    0.0000 C   0  0  0  0  0  0  0  0  0  0  0  0
    7.0442    5.7990    0.0000 F   0  0  0  0  0  0  0  0  0  0  0  0
    8.5442    3.2010    0.0000 F   0  0  0  0  0  0  0  0  0  0  0  0
    9.0933    5.2500    0.0000 C   0  0  0  0  0  0  0  0  0  0  0  0
    9.8433    3.9510    0.0000 F   0  0  0  0  0  0  0  0  0  0  0  0
    8.3433    6.5490    0.0000 F   0  0  0  0  0  0  0  0  0  0  0  0
   10.3923    6.0000    0.0000 C   0  0  0  0  0  0  0  0  0  0  0  0
    9.6423    7.2990    0.0000 F   0  0  0  0  0  0  0  0  0  0  0  0
   11.1423    4.7010    0.0000 F   0  0  0  0  0  0  0  0  0  0  0  0
   11.6913    6.7500    0.0000 C   0  0  0  0  0  0  0  0  0  0  0  0
   12.9904    7.5000    0.0000 F   0  0  0  0  0  0  0  0  0  0  0  0
   12.4413    5.4510    0.0000 F   0  0  0  0  0  0  0  0  0  0  0  0
   10.9413    8.0490    0.0000 F   0  0  0  0  0  0  0  0  0  0  0  0
  1  2  2  0
  2  3  1  0
  3  4  1  0
  4  5  2  0
  4  6  1  0
  6  7  1  0
  6  8  1  0
  6  9  1  0
  9 10  1  0
  9 11  1  0
  9 12  1  0
 12 13  1  0
 12 14  1  0
 12 15  1  0
 15 16  1  0
 15 17  1  0
 15 18  1  0
 18 19  1  0
 18 20  1  0
 18 21  1  0
 21 22  1  0
 21 23  1  0
 21 24  1  0
 24 25  1  0
 24 26  1  0
 24 27  1  0
 27 28  1  0
 27 29  1  0
 27 30  1  0
 30 31  1  0
 30 32  1  0
 30 33  1  0
  2 34  1  0
 34 35  1  0
 34 36  1  0
 34 37  1  0
 37 38  1  0
 37 39  1  0
 37 40  1  0
 40 41  1  0
 40 42  1  0
 40 43  1  0
 43 44  1  0
 43 45  1  0
 43 46  1  0
 46 47  1  0
 46 48  1  0
 46 49  1  0
 49 50  1  0
 49 51  1  0
 49 52  1  0
 52 53  1  0
 52 54  1  0
 52 55  1  0
 55 56  1  0
 55 57  1  0
 55 58  1  0
 58 59  1  0
 58 60  1  0
 58 61  1  0
M  END
$$$$

     RDKit          2D

 25 24  0  0  0  0  0  0  0  0999 V2000
    0.0000    4.0000    0.0000 K   0  0  0  0  0 15  0  0  0  0  0  0
    0.0000    5.0000    0.0000 K   0  0  0  0  0 15  0  0  0  0  0  0
    3.0000    0.0000    0.0000 O   0  0  0  0  0  0  0  0  0  0  0  0
    1.5000    0.0000    0.0000 C   0  0  0  0  0  0  0  0  0  0  0  0
    0.7500   -1.2990    0.0000 C   0  0  0  0  0  0  0  0  0  0  0  0
   -0.7500   -1.2990    0.0000 C   0  0  0  0  0  0  0  0  0  0  0  0
   -1.5000    0.0000    0.0000 C   0  0  0  0  0  0  0  0  0  0  0  0
   -3.0000    0.0000    0.0000 C   0  0  0  0  0  0  0  0  0  0  0  0
   -4.5000    0.0000    0.0000 C   0  0  0  0  0  0  0  0  0  0  0  0
   -5.2500    1.2990    0.0000 C   0  0  0  0  0  0  0  0  0  0  0  0
   -6.7500    1.2990    0.0000 C   0  0  0  0  0  0  0  0  0  0  0  0
   -7.5000    0.0000    0.0000 C   0  0  0  0  0  0  0  0  0  0  0  0
   -9.0000    0.0000    0.0000 O   0  0  0  0  0  0  0  0  0  0  0  0
   -6.7500   -1.2990    0.0000 C   0  0  0  0  0  0  0  0  0  0  0  0
   -5.2500   -1.2990    0.0000 C   0  0  0  0  0  0  0  0  0  0  0  0
   -3.0000    1.5000    0.0000 C   0  0  0  0  0  0  0  0  0  0  0  0
   -3.0000    3.0000    0.0000 F   0  0  0  0  0  0  0  0  0  0  0  0
   -4.4554    1.8630    0.0000 F   0  0  0  0  0  0  0  0  0  0  0  0
   -1.5446    1.8630    0.0000 F   0  0  0  0  0  0  0  0  0  0  0  0
   -3.0000   -1.5000    0.0000 C   0  0  0  0  0  0  0  0  0  0  0  0
   -3.0000   -3.0000    0.0000 F   0  0  0  0  0  0  0  0  0  0  0  0
   -4.4554   -1.8630    0.0000 F   0  0  0  0  0  0  0  0  0  0  0  0
   -1.5446   -1.8630    0.0000 F   0  0  0  0  0  0  0  0  0  0  0  0
   -0.7500    1.2990    0.0000 C   0  0  0  0  0  0  0  0  0  0  0  0
    0.7500    1.2990    0.0000 C   0  0  0  0  0  0  0  0  0  0  0  0
  3  4  1  0
  4  5  2  0
  5  6  1  0
  6  7  2  0
  7  8  1  0
  8  9  1  0
  9 10  2  0
 10 11  1  0
 11 12  2  0
 12 13  1  0
 12 14  1  0
 14 15  2  0
  8 16  1  0
 16 17  1  0
 16 18  1  0
 16 19  1  0
  8 20  1  0
 20 21  1  0
 20 22  1  0
 20 23  1  0
  7 24  1  0
 24 25  2  0
 25  4  1  0
 15  9  1  0
M  CHG  4   1   1   2   1   3  -1  13  -1
M  END
$$$$

     RDKit          2D

 53 52  0  0  0  0  0  0  0  0999 V2000
    0.0000    0.0000    0.0000 C   0  0  0  0  0  0  0  0  0  0  0  0
    1.2990    0.7500    0.0000 Si  0  0  0  0  0  4  0  0  0  0  0  0
    2.5981    1.5000    0.0000 C   0  0  0  0  0  0  0  0  0  0  0  0
    2.0490   -0.5490    0.0000 C   0  0  0  0  0  0  0  0  0  0  0  0
    3.5490   -0.5490    0.0000 C   0  0  0  0  0  0  0  0  0  0  0  0
    4.2990   -1.8481    0.0000 C   0  0  0  0  0  0  0  0  0  0  0  0
    5.5981   -1.0981    0.0000 F   0  0  0  0  0  0  0  0  0  0  0  0
    3.0000   -2.5981    0.0000 F   0  0  0  0  0  0  0  0  0  0  0  0
    5.0490   -3.1471    0.0000 C   0  0  0  0  0  0  0  0  0  0  0  0
    3.7500   -3.8971    0.0000 F   0  0  0  0  0  0  0  0  0  0  0  0
    6.3481   -2.3971    0.0000 F   0  0  0  0  0  0  0  0  0  0  0  0
    5.7990   -4.4462    0.0000 C   0  0  0  0  0  0  0  0  0  0  0  0
    7.0981   -3.6962    0.0000 F   0  0  0  0  0  0  0  0  0  0  0  0
    4.5000   -5.1962    0.0000 F   0  0  0  0  0  0  0  0  0  0  0  0
    6.5490   -5.7452    0.0000 C   0  0  0  0  0  0  0  0  0  0  0  0
    5.2500   -6.4952    0.0000 F   0  0  0  0  0  0  0  0  0  0  0  0
    7.8481   -4.9952    0.0000 F   0  0  0  0  0  0  0  0  0  0  0  0
    7.2990   -7.0442    0.0000 C   0  0  0  0  0  0  0  0  0  0  0  0
    8.5981   -6.2942    0.0000 F   0  0  0  0  0  0  0  0  0  0  0  0
    6.0000   -7.7942    0.0000 F   0  0  0  0  0  0  0  0  0  0  0  0
    8.0490   -8.3433    0.0000 C   0  0  0  0  0  0  0  0  0  0  0  0
    8.7990   -9.6423    0.0000 F   0  0  0  0  0  0  0  0  0  0  0  0
    6.7500   -9.0933    0.0000 F   0  0  0  0  0  0  0  0  0  0  0  0
    9.3481   -7.5933    0.0000 F   0  0  0  0  0  0  0  0  0  0  0  0
    0.5490    2.0490    0.0000 O   0  0  0  0  0  0  0  0  0  0  0  0
    1.2990    3.3481    0.0000 Si  0  0  0  0  0  4  0  0  0  0  0  0
    2.0490    4.6471    0.0000 C   0  0  0  0  0  0  0  0  0  0  0  0
    0.0000    4.0981    0.0000 Cl  0  0  0  0  0  0  0  0  0  0  0  0
    2.5981    2.5981    0.0000 O   0  0  0  0  0  0  0  0  0  0  0  0
    3.8971    3.3481    0.0000 Si  0  0  0  0  0  4  0  0  0  0  0  0
    4.6471    2.0490    0.0000 C   0  0  0  0  0  0  0  0  0  0  0  0
    3.1471    4.6471    0.0000 C   0  0  0  0  0  0  0  0  0  0  0  0
    5.1962    4.0981    0.0000 C   0  0  0  0  0  0  0  0  0  0  0  0
    5.1962    5.5981    0.0000 C   0  0  0  0  0  0  0  0  0  0  0  0
    6.4952    6.3481    0.0000 C   0  0  0  0  0  0  0  0  0  0  0  0
    5.7452    7.6471    0.0000 F   0  0  0  0  0  0  0  0  0  0  0  0
    7.2452    5.0490    0.0000 F   0  0  0  0  0  0  0  0  0  0  0  0
    7.7942    7.0981    0.0000 C   0  0  0  0  0  0  0  0  0  0  0  0
    8.5442    5.7990    0.0000 F   0  0  0  0  0  0  0  0  0  0  0  0
    7.0442    8.3971    0.0000 F   0  0  0  0  0  0  0  0  0  0  0  0
    9.0933    7.8481    0.0000 C   0  0  0  0  0  0  0  0  0  0  0  0
    8.3433    9.1471    0.0000 F   0  0  0  0  0  0  0  0  0  0  0  0
    9.8433    6.5490    0.0000 F   0  0  0  0  0  0  0  0  0  0  0  0
   10.3923    8.5981    0.0000 C   0  0  0  0  0  0  0  0  0  0  0  0
   11.1423    7.2990    0.0000 F   0  0  0  0  0  0  0  0  0  0  0  0
    9.6423    9.8971    0.0000 F   0  0  0  0  0  0  0  0  0  0  0  0
   11.6913    9.3481    0.0000 C   0  0  0  0  0  0  0  0  0  0  0  0
   10.9413   10.6471    0.0000 F   0  0  0  0  0  0  0  0  0  0  0  0
   12.4413    8.0490    0.0000 F   0  0  0  0  0  0  0  0  0  0  0  0
   12.9904   10.0981    0.0000 C   0  0  0  0  0  0  0  0  0  0  0  0
   14.2894   10.8481    0.0000 F   0  0  0  0  0  0  0  0  0  0  0  0
   13.7404    8.7990    0.0000 F   0  0  0  0  0  0  0  0  0  0  0  0
   12.2404   11.3971    0.0000 F   0  0  0  0  0  0  0  0  0  0  0  0
  1  2  1  0
  2  3  1  0
  2  4  1  0
  4  5  1  0
  5  6  1  0
  6  7  1  0
  6  8  1  0
  6  9  1  0
  9 10  1  0
  9 11  1  0
  9 12  1  0
 12 13  1  0
 12 14  1  0
 12 15  1  0
 15 16  1  0
 15 17  1  0
 15 18  1  0
 18 19  1  0
 18 20  1  0
 18 21  1  0
 21 22  1  0
 21 23  1  0
 21 24  1  0
  2 25  1  0
 25 26  1  0
 26 27  1  0
 26 28  1  0
 26 29  1  0
 29 30  1  0
 30 31  1  0
 30 32  1  0
 30 33  1  0
 33 34  1  0
 34 35  1  0
 35 36  1  0
 35 37  1  0
 35 38  1  0
 38 39  1  0
 38 40  1  0
 38 41  1  0
 41 42  1  0
 41 43  1  0
 41 44  1  0
 44 45  1  0
 44 46  1  0
 44 47  1  0
 47 48  1  0
 47 49  1  0
 47 50  1  0
 50 51  1  0
 50 52  1  0
 50 53  1  0
M  END
$$$$

     RDKit          2D

 22 21  0  0  0  0  0  0  0  0999 V2000
    0.0000    0.0000    0.0000 C   0  0  0  0  0  0  0  0  0  0  0  0
    1.2990    0.7500    0.0000 C   0  0  0  0  0  0  0  0  0  0  0  0
    2.5981   -0.0000    0.0000 N   0  0  0  0  0  0  0  0  0  0  0  0
    3.8971    0.7500    0.0000 C   0  0  0  0  0  0  0  0  0  0  0  0
    5.1962   -0.0000    0.0000 C   0  0  0  0  0  0  0  0  0  0  0  0
    6.4952    0.7500    0.0000 O   0  0  0  0  0  0  0  0  0  0  0  0
    2.5981   -1.5000    0.0000 S   0  0  0  0  0  0  0  0  0  0  0  0
    1.8069   -1.4028    0.0000 O   0  0  0  0  0  0  0  0  0  0  0  0
    4.0981   -1.5000    0.0000 O   0  0  0  0  0  0  0  0  0  0  0  0
    2.5981   -3.0000    0.0000 C   0  0  0  0  0  0  0  0  0  0  0  0
    4.0981   -3.0000    0.0000 F   0  0  0  0  0  0  0  0  0  0  0  0
    2.5981   -4.5000    0.0000 F   0  0  0  0  0  0  0  0  0  0  0  0
    1.0981   -3.0000    0.0000 C   0  0  0  0  0  0  0  0  0  0  0  0
    1.0981   -4.5000    0.0000 F   0  0  0  0  0  0  0  0  0  0  0  0
    0.9901   -2.1209    0.0000 F   0  0  0  0  0  0  0  0  0  0  0  0
   -0.4019   -3.0000    0.0000 C   0  0  0  0  0  0  0  0  0  0  0  0
   -0.4019   -1.5000    0.0000 F   0  0  0  0  0  0  0  0  0  0  0  0
   -0.4019   -4.5000    0.0000 F   0  0  0  0  0  0  0  0  0  0  0  0
   -1.9019   -3.0000    0.0000 C   0  0  0  0  0  0  0  0  0  0  0  0
   -3.4019   -3.0000    0.0000 F   0  0  0  0  0  0  0  0  0  0  0  0
   -1.9019   -4.5000    0.0000 F   0  0  0  0  0  0  0  0  0  0  0  0
   -1.9019   -1.5000    0.0000 F   0  0  0  0  0  0  0  0  0  0  0  0
  1  2  1  0
  2  3  1  0
  3  4  1  0
  4  5  1  0
  5  6  1  0
  3  7  1  0
  7  8  2  0
  7  9  2  0
  7 10  1  0
 10 11  1  0
 10 12  1  0
 10 13  1  0
 13 14  1  0
 13 15  1  0
 13 16  1  0
 16 17  1  0
 16 18  1  0
 16 19  1  0
 19 20  1  0
 19 21  1  0
 19 22  1  0
M  END
$$$$

     RDKit          2D

 21 20  0  0  0  0  0  0  0  0999 V2000
    0.0000    0.0000    0.0000 C   0  0  0  0  0  0  0  0  0  0  0  0
    1.2990    0.7500    0.0000 N   0  0  0  0  0  0  0  0  0  0  0  0
    2.5981   -0.0000    0.0000 C   0  0  0  0  0  0  0  0  0  0  0  0
    3.8971    0.7500    0.0000 C   0  0  0  0  0  0  0  0  0  0  0  0
    5.1962   -0.0000    0.0000 O   0  0  0  0  0  0  0  0  0  0  0  0
    1.2990    2.2500    0.0000 S   0  0  0  0  0  0  0  0  0  0  0  0
    0.5078    2.1528    0.0000 O   0  0  0  0  0  0  0  0  0  0  0  0
    2.7990    2.2500    0.0000 O   0  0  0  0  0  0  0  0  0  0  0  0
    1.2990    3.7500    0.0000 C   0  0  0  0  0  0  0  0  0  0  0  0
    2.7990    3.7500    0.0000 F   0  0  0  0  0  0  0  0  0  0  0  0
    1.2990    5.2500    0.0000 F   0  0  0  0  0  0  0  0  0  0  0  0
   -0.2010    3.7500    0.0000 C   0  0  0  0  0  0  0  0  0  0  0  0
   -0.3089    2.8709    0.0000 F   0  0  0  0  0  0  0  0  0  0  0  0
   -0.2010    5.2500    0.0000 F   0  0  0  0  0  0  0  0  0  0  0  0
   -1.7010    3.7500    0.0000 C   0  0  0  0  0  0  0  0  0  0  0  0
   -1.7010    5.2500    0.0000 F   0  0  0  0  0  0  0  0  0  0  0  0
   -1.7010    2.2500    0.0000 F   0  0  0  0  0  0  0  0  0  0  0  0
   -3.2010    3.7500    0.0000 C   0  0  0  0  0  0  0  0  0  0  0  0
   -4.7010    3.7500    0.0000 F   0  0  0  0  0  0  0  0  0  0  0  0
   -3.2010    2.2500    0.0000 F   0  0  0  0  0  0  0  0  0  0  0  0
   -3.2010    5.2500    0.0000 F   0  0  0  0  0  0  0  0  0  0  0  0
  1  2  1  0
  2  3  1  0
  3  4  1  0
  4  5  1  0
  2  6  1  0
  6  7  2  0
  6  8  2  0
  6  9  1  0
  9 10  1  0
  9 11  1  0
  9 12  1  0
 12 13  1  0
 12 14  1  0
 12 15  1  0
 15 16  1  0
 15 17  1  0
 15 18  1  0
 18 19  1  0
 18 20  1  0
 18 21  1  0
M  END
$$$$

     RDKit          2D

 19 18  0  0  0  0  0  0  0  0999 V2000
    0.0000    0.0000    0.0000 C   0  0  0  0  0  0  0  0  0  0  0  0
    1.2990    0.7500    0.0000 O   0  0  0  0  0  0  0  0  0  0  0  0
    2.5981   -0.0000    0.0000 Si  0  0  0  0  0  4  0  0  0  0  0  0
    3.8971   -0.7500    0.0000 C   0  0  0  0  0  0  0  0  0  0  0  0
    3.8971   -2.2500    0.0000 C   0  0  0  0  0  0  0  0  0  0  0  0
    5.1962   -3.0000    0.0000 C   0  0  0  0  0  0  0  0  0  0  0  0
    4.4462   -4.2990    0.0000 F   0  0  0  0  0  0  0  0  0  0  0  0
    5.9462   -1.7010    0.0000 F   0  0  0  0  0  0  0  0  0  0  0  0
    6.4952   -3.7500    0.0000 C   0  0  0  0  0  0  0  0  0  0  0  0
    7.2452   -2.4510    0.0000 F   0  0  0  0  0  0  0  0  0  0  0  0
    5.7452   -5.0490    0.0000 F   0  0  0  0  0  0  0  0  0  0  0  0
    7.7942   -4.5000    0.0000 C   0  0  0  0  0  0  0  0  0  0  0  0
    9.0933   -5.2500    0.0000 F   0  0  0  0  0  0  0  0  0  0  0  0
    7.0442   -5.7990    0.0000 F   0  0  0  0  0  0  0  0  0  0  0  0
    8.5442   -3.2010    0.0000 F   0  0  0  0  0  0  0  0  0  0  0  0
    1.8481   -1.2990    0.0000 O   0  0  0  0  0  0  0  0  0  0  0  0
    2.5981   -2.5981    0.0000 C   0  0  0  0  0  0  0  0  0  0  0  0
    3.3481    1.2990    0.0000 O   0  0  0  0  0  0  0  0  0  0  0  0
    4.8481    1.2990    0.0000 C   0  0  0  0  0  0  0  0  0  0  0  0
  1  2  1  0
  2  3  1  0
  3  4  1  0
  4  5  1  0
  5  6  1  0
  6  7  1  0
  6  8  1  0
  6  9  1  0
  9 10  1  0
  9 11  1  0
  9 12  1  0
 12 13  1  0
 12 14  1  0
 12 15  1  0
  3 16  1  0
 16 17  1  0
  3 18  1  0
 18 19  1  0
M  END
$$$$

     RDKit          2D

 33 32  0  0  0  0  0  0  0  0999 V2000
    0.0000    0.0000    0.0000 C   0  0  0  0  0  0  0  0  0  0  0  0
    1.2990    0.7500    0.0000 C   0  0  0  0  0  0  0  0  0  0  0  0
    2.5981   -0.0000    0.0000 C   0  0  0  0  0  0  0  0  0  0  0  0
    2.5981   -1.5000    0.0000 O   0  0  0  0  0  0  0  0  0  0  0  0
    3.8971    0.7500    0.0000 O   0  0  0  0  0  0  0  0  0  0  0  0
    5.1962   -0.0000    0.0000 C   0  0  0  0  0  0  0  0  0  0  0  0
    6.4952    0.7500    0.0000 C   0  0  0  0  0  0  0  0  0  0  0  0
    7.7942   -0.0000    0.0000 N   0  0  0  0  0  0  0  0  0  0  0  0
    9.0933    0.7500    0.0000 C   0  0  0  0  0  0  0  0  0  0  0  0
    7.7942   -1.5000    0.0000 S   0  0  0  0  0  0  0  0  0  0  0  0
    6.2942   -1.5000    0.0000 O   0  0  0  0  0  0  0  0  0  0  0  0
    9.2942   -1.5000    0.0000 O   0  0  0  0  0  0  0  0  0  0  0  0
    7.7942   -3.0000    0.0000 C   0  0  0  0  0  0  0  0  0  0  0  0
    6.4952   -3.7500    0.0000 C   0  0  0  0  0  0  0  0  0  0  0  0
    6.4952   -5.2500    0.0000 C   0  0  0  0  0  0  0  0  0  0  0  0
    4.9952   -5.2500    0.0000 F   0  0  0  0  0  0  0  0  0  0  0  0
    7.9952   -5.2500    0.0000 F   0  0  0  0  0  0  0  0  0  0  0  0
    6.4952   -6.7500    0.0000 C   0  0  0  0  0  0  0  0  0  0  0  0
    7.9952   -6.7500    0.0000 F   0  0  0  0  0  0  0  0  0  0  0  0
    4.9952   -6.7500    0.0000 F   0  0  0  0  0  0  0  0  0  0  0  0
    6.4952   -8.2500    0.0000 C   0  0  0  0  0  0  0  0  0  0  0  0
    4.9952   -8.2500    0.0000 F   0  0  0  0  0  0  0  0  0  0  0  0
    7.9952   -8.2500    0.0000 F   0  0  0  0  0  0  0  0  0  0  0  0
    6.4952   -9.7500    0.0000 C   0  0  0  0  0  0  0  0  0  0  0  0
    7.9952   -9.7500    0.0000 F   0  0  0  0  0  0  0  0  0  0  0  0
    4.9952   -9.7500    0.0000 F   0  0  0  0  0  0  0  0  0  0  0  0
    6.4952  -11.2500    0.0000 C   0  0  0  0  0  0  0  0  0  0  0  0
    4.9952  -11.2500    0.0000 F   0  0  0  0  0  0  0  0  0  0  0  0
    7.9952  -11.2500    0.0000 F   0  0  0  0  0  0  0  0  0  0  0  0
    6.4952  -12.7500    0.0000 C   0  0  0  0  0  0  0  0  0  0  0  0
    6.4952  -14.2500    0.0000 F   0  0  0  0  0  0  0  0  0  0  0  0
    7.9952  -12.7500    0.0000 F   0  0  0  0  0  0  0  0  0  0  0  0
    4.9952  -12.7500    0.0000 F   0  0  0  0  0  0  0  0  0  0  0  0
  1  2  2  0
  2  3  1  0
  3  4  2  0
  3  5  1  0
  5  6  1  0
  6  7  1  0
  7  8  1  0
  8  9  1  0
  8 10  1  0
 10 11  2  0
 10 12  2  0
 10 13  1  0
 13 14  1  0
 14 15  1  0
 15 16  1  0
 15 17  1  0
 15 18  1  0
 18 19  1  0
 18 20  1  0
 18 21  1  0
 21 22  1  0
 21 23  1  0
 21 24  1  0
 24 25  1  0
 24 26  1  0
 24 27  1  0
 27 28  1  0
 27 29  1  0
 27 30  1  0
 30 31  1  0
 30 32  1  0
 30 33  1  0
M  END
$$$$

     RDKit          2D

 21 21  0  0  0  0  0  0  0  0999 V2000
    6.0000   -0.0000    0.0000 F   0  0  0  0  0  0  0  0  0  0  0  0
    4.5000   -0.0000    0.0000 C   0  0  0  0  0  0  0  0  0  0  0  0
    4.5000    1.5000    0.0000 F   0  0  0  0  0  0  0  0  0  0  0  0
    4.5000   -1.5000    0.0000 F   0  0  0  0  0  0  0  0  0  0  0  0
    3.0000   -0.0000    0.0000 C   0  0  0  0  0  0  0  0  0  0  0  0
    3.1828    1.4888    0.0000 F   0  0  0  0  0  0  0  0  0  0  0  0
    3.1828   -1.4888    0.0000 F   0  0  0  0  0  0  0  0  0  0  0  0
    1.5000    0.0000    0.0000 N   0  0  0  0  0  0  0  0  0  0  0  0
    0.7500   -1.2990    0.0000 C   0  0  0  0  0  0  0  0  0  0  0  0
    2.0865   -1.9801    0.0000 F   0  0  0  0  0  0  0  0  0  0  0  0
    0.4895   -2.7762    0.0000 F   0  0  0  0  0  0  0  0  0  0  0  0
   -0.7500   -1.2990    0.0000 C   0  0  0  0  0  0  0  0  0  0  0  0
   -0.4895   -2.7762    0.0000 F   0  0  0  0  0  0  0  0  0  0  0  0
   -2.1595   -1.8121    0.0000 F   0  0  0  0  0  0  0  0  0  0  0  0
   -1.5000    0.0000    0.0000 O   0  0  0  0  0  0  0  0  0  0  0  0
   -0.7500    1.2990    0.0000 C   0  0  0  0  0  0  0  0  0  0  0  0
   -2.1595    1.8121    0.0000 F   0  0  0  0  0  0  0  0  0  0  0  0
   -0.4895    2.7762    0.0000 F   0  0  0  0  0  0  0  0  0  0  0  0
    0.7500    1.2990    0.0000 C   0  0  0  0  0  0  0  0  0  0  0  0
    0.4895    2.7762    0.0000 F   0  0  0  0  0  0  0  0  0  0  0  0
    2.0865    1.9801    0.0000 F   0  0  0  0  0  0  0  0  0  0  0  0
  1  2  1  0
  2  3  1  0
  2  4  1  0
  2  5  1  0
  5  6  1  0
  5  7  1  0
  5  8  1  0
  8  9  1  0
  9 10  1  0
  9 11  1  0
  9 12  1  0
 12 13  1  0
 12 14  1  0
 12 15  1  0
 15 16  1  0
 16 17  1  0
 16 18  1  0
 16 19  1  0
 19 20  1  0
 19 21  1  0
 19  8  1  0
M  END
$$$$

     RDKit          2D

 15 14  0  0  0  0  0  0  0  0999 V2000
    0.0000    0.0000    0.0000 C   0  0  0  0  0  0  0  0  0  0  0  0
    1.2990    0.7500    0.0000 C   0  0  0  0  0  0  0  0  0  0  0  0
    1.2990    2.2500    0.0000 C   0  0  0  0  0  0  0  0  0  0  0  0
    2.5981    3.0000    0.0000 C   0  0  0  0  0  0  0  0  0  0  0  0
    2.5981    3.8857    0.0000 O   0  0  0  0  0  0  0  0  0  0  0  0
    3.8971    2.2500    0.0000 O   0  0  0  0  0  0  0  0  0  0  0  0
    5.1962    3.0000    0.0000 C   0  0  0  0  0  0  0  0  0  0  0  0
    6.4952    3.7500    0.0000 F   0  0  0  0  0  0  0  0  0  0  0  0
    5.9462    1.7010    0.0000 C   0  0  0  0  0  0  0  0  0  0  0  0
    5.1962    0.4019    0.0000 F   0  0  0  0  0  0  0  0  0  0  0  0
    7.4462    1.7010    0.0000 F   0  0  0  0  0  0  0  0  0  0  0  0
    4.4462    4.2990    0.0000 C   0  0  0  0  0  0  0  0  0  0  0  0
    3.6962    5.5981    0.0000 F   0  0  0  0  0  0  0  0  0  0  0  0
    5.7452    5.0490    0.0000 F   0  0  0  0  0  0  0  0  0  0  0  0
    3.5947    4.0549    0.0000 F   0  0  0  0  0  0  0  0  0  0  0  0
  1  2  1  0
  2  3  2  3
  3  4  1  0
  4  5  2  0
  4  6  1  0
  6  7  1  0
  7  8  1  0
  7  9  1  0
  9 10  1  0
  9 11  1  0
  7 12  1  0
 12 13  1  0
 12 14  1  0
 12 15  1  0
M  END
$$$$

     RDKit          2D

 14 13  0  0  0  0  0  0  0  0999 V2000
   -0.0000   -1.5000    0.0000 O   0  0  0  0  0  0  0  0  0  0  0  0
    0.0000    0.0000    0.0000 C   0  0  0  0  0  0  0  0  0  0  0  0
   -1.2990    0.7500    0.0000 O   0  0  0  0  0  0  0  0  0  0  0  0
    1.2990    0.7500    0.0000 C   0  0  0  0  0  0  0  0  0  0  0  0
    1.2990    2.2500    0.0000 F   0  0  0  0  0  0  0  0  0  0  0  0
    2.5981   -0.0000    0.0000 C   0  0  0  0  0  0  0  0  0  0  0  0
    2.5981   -1.5000    0.0000 F   0  0  0  0  0  0  0  0  0  0  0  0
    3.8971    0.7500    0.0000 C   0  0  0  0  0  0  0  0  0  0  0  0
    4.6471   -0.5490    0.0000 F   0  0  0  0  0  0  0  0  0  0  0  0
    3.1471    2.0490    0.0000 F   0  0  0  0  0  0  0  0  0  0  0  0
    5.1962    1.5000    0.0000 C   0  0  0  0  0  0  0  0  0  0  0  0
    6.4952    2.2500    0.0000 F   0  0  0  0  0  0  0  0  0  0  0  0
    4.4462    2.7990    0.0000 F   0  0  0  0  0  0  0  0  0  0  0  0
    5.9462    0.2010    0.0000 F   0  0  0  0  0  0  0  0  0  0  0  0
  1  2  2  0
  2  3  1  0
  2  4  1  0
  4  5  1  0
  4  6  2  3
  6  7  1  0
  6  8  1  0
  8  9  1  0
  8 10  1  0
  8 11  1  0
 11 12  1  0
 11 13  1  0
 11 14  1  0
M  END
$$$$

     RDKit          2D

 44 44  0  0  0  0  0  0  0  0999 V2000
    9.5490    3.1471    0.0000 C   0  0  0  0  0  0  0  0  0  0  0  0
    8.2500    3.8971    0.0000 C   0  0  0  0  0  0  0  0  0  0  0  0
    6.9510    4.6471    0.0000 C   0  0  0  0  0  0  0  0  0  0  0  0
    9.0000    5.1962    0.0000 C   0  0  0  0  0  0  0  0  0  0  0  0
    8.2500    6.4952    0.0000 C   0  0  0  0  0  0  0  0  0  0  0  0
    9.0000    7.7942    0.0000 C   0  0  0  0  0  0  0  0  0  0  0  0
    7.7010    8.5442    0.0000 F   0  0  0  0  0  0  0  0  0  0  0  0
   10.2990    7.0442    0.0000 F   0  0  0  0  0  0  0  0  0  0  0  0
    9.7500    9.0933    0.0000 C   0  0  0  0  0  0  0  0  0  0  0  0
   11.0490    8.3433    0.0000 F   0  0  0  0  0  0  0  0  0  0  0  0
    8.4510    9.8433    0.0000 F   0  0  0  0  0  0  0  0  0  0  0  0
   10.5000   10.3923    0.0000 C   0  0  0  0  0  0  0  0  0  0  0  0
    9.2010   11.1423    0.0000 F   0  0  0  0  0  0  0  0  0  0  0  0
   11.7990    9.6423    0.0000 F   0  0  0  0  0  0  0  0  0  0  0  0
   11.2500   11.6913    0.0000 C   0  0  0  0  0  0  0  0  0  0  0  0
   12.5490   10.9413    0.0000 F   0  0  0  0  0  0  0  0  0  0  0  0
    9.9510   12.4413    0.0000 F   0  0  0  0  0  0  0  0  0  0  0  0
   12.0000   12.9904    0.0000 C   0  0  0  0  0  0  0  0  0  0  0  0
   10.7010   13.7404    0.0000 F   0  0  0  0  0  0  0  0  0  0  0  0
   13.2990   12.2404    0.0000 F   0  0  0  0  0  0  0  0  0  0  0  0
   12.7500   14.2894    0.0000 C   0  0  0  0  0  0  0  0  0  0  0  0
   14.0490   13.5394    0.0000 F   0  0  0  0  0  0  0  0  0  0  0  0
   11.4510   15.0394    0.0000 F   0  0  0  0  0  0  0  0  0  0  0  0
   13.5000   15.5885    0.0000 C   0  0  0  0  0  0  0  0  0  0  0  0
   12.2010   16.3385    0.0000 F   0  0  0  0  0  0  0  0  0  0  0  0
   14.7990   14.8385    0.0000 F   0  0  0  0  0  0  0  0  0  0  0  0
   14.2500   16.8875    0.0000 C   0  0  0  0  0  0  0  0  0  0  0  0
   15.0000   18.1865    0.0000 F   0  0  0  0  0  0  0  0  0  0  0  0
   15.5490   16.1375    0.0000 F   0  0  0  0  0  0  0  0  0  0  0  0
   12.9510   17.6375    0.0000 F   0  0  0  0  0  0  0  0  0  0  0  0
    7.5000    2.5981    0.0000 O   0  0  0  0  0  0  0  0  0  0  0  0
    6.0000    2.5981    0.0000 C   0  0  0  0  0  0  0  0  0  0  0  0
    5.2500    3.8971    0.0000 O   0  0  0  0  0  0  0  0  0  0  0  0
    5.2500    1.2990    0.0000 O   0  0  0  0  0  0  0  0  0  0  0  0
    3.7500    1.2990    0.0000 N   0  0  0  0  0  0  0  0  0  0  0  0
    3.0000    0.0000    0.0000 C   0  0  0  0  0  0  0  0  0  0  0  0
    3.7500   -1.2990    0.0000 C   0  0  0  0  0  0  0  0  0  0  0  0
    4.5000   -2.5981    0.0000 N   0  0  0  0  0  0  0  0  0  0  0  0
    1.5000    0.0000    0.0000 C   0  0  0  0  0  0  0  0  0  0  0  0
    0.7500   -1.2990    0.0000 C   0  0  0  0  0  0  0  0  0  0  0  0
   -0.7500   -1.2990    0.0000 C   0  0  0  0  0  0  0  0  0  0  0  0
   -1.5000    0.0000    0.0000 C   0  0  0  0  0  0  0  0  0  0  0  0
   -0.7500    1.2990    0.0000 C   0  0  0  0  0  0  0  0  0  0  0  0
    0.7500    1.2990    0.0000 C   0  0  0  0  0  0  0  0  0  0  0  0
  1  2  1  0
  2  3  1  0
  2  4  1  0
  4  5  1  0
  5  6  1  0
  6  7  1  0
  6  8  1  0
  6  9  1  0
  9 10  1  0
  9 11  1  0
  9 12  1  0
 12 13  1  0
 12 14  1  0
 12 15  1  0
 15 16  1  0
 15 17  1  0
 15 18  1  0
 18 19  1  0
 18 20  1  0
 18 21  1  0
 21 22  1  0
 21 23  1  0
 21 24  1  0
 24 25  1  0
 24 26  1  0
 24 27  1  0
 27 28  1  0
 27 29  1  0
 27 30  1  0
  2 31  1  0
 31 32  1  0
 32 33  2  0
 32 34  1  0
 34 35  1  0
 35 36  2  3
 36 37  1  0
 37 38  3  0
 36 39  1  0
 39 40  2  0
 40 41  1  0
 41 42  2  0
 42 43  1  0
 43 44  2  0
 44 39  1  0
M  END
$$$$

     RDKit          2D

  9  8  0  0  0  0  0  0  0  0999 V2000
    0.0000    0.0000    0.0000 C   0  0  0  0  0  0  0  0  0  0  0  0
    1.2990    0.7500    0.0000 C   0  0  0  0  0  0  0  0  0  0  0  0
    2.5981   -0.0000    0.0000 C   0  0  0  0  0  0  0  0  0  0  0  0
    1.2990    2.2500    0.0000 C   0  0  0  0  0  0  0  0  0  0  0  0
    2.7990    2.2500    0.0000 F   0  0  0  0  0  0  0  0  0  0  0  0
   -0.2010    2.2500    0.0000 F   0  0  0  0  0  0  0  0  0  0  0  0
    1.2990    3.7500    0.0000 C   0  0  0  0  0  0  0  0  0  0  0  0
    0.0000    4.5000    0.0000 F   0  0  0  0  0  0  0  0  0  0  0  0
    2.5981    4.5000    0.0000 F   0  0  0  0  0  0  0  0  0  0  0  0
  1  2  2  0
  2  3  1  0
  2  4  1  0
  4  5  1  0
  4  6  1  0
  4  7  1  0
  7  8  1  0
  7  9  1  0
M  END
$$$$

     RDKit          2D

 24 23  0  0  0  0  0  0  0  0999 V2000
    0.2209   -0.0625    0.0000 C   0  0  0  0  0  0  0  0  0  0  0  0
    1.2990    0.7500    0.0000 C   0  0  0  0  0  0  0  0  0  0  0  0
    2.5981    1.5000    0.0000 C   0  0  0  0  0  0  0  0  0  0  0  0
    2.7910    2.2735    0.0000 O   0  0  0  0  0  0  0  0  0  0  0  0
    2.0490   -0.5490    0.0000 C   0  0  0  0  0  0  0  0  0  0  0  0
    3.5490   -0.5490    0.0000 O   0  0  0  0  0  0  0  0  0  0  0  0
    0.5490    2.0490    0.0000 N   0  0  0  0  0  0  0  0  0  0  0  0
   -0.9510    2.0490    0.0000 C   0  0  0  0  0  0  0  0  0  0  0  0
   -1.7010    3.3481    0.0000 O   0  0  0  0  0  0  0  0  0  0  0  0
   -1.7010    0.7500    0.0000 C   0  0  0  0  0  0  0  0  0  0  0  0
   -3.0000    1.5000    0.0000 F   0  0  0  0  0  0  0  0  0  0  0  0
   -0.6228   -0.0625    0.0000 F   0  0  0  0  0  0  0  0  0  0  0  0
   -2.4510   -0.5490    0.0000 C   0  0  0  0  0  0  0  0  0  0  0  0
   -3.7500    0.2010    0.0000 F   0  0  0  0  0  0  0  0  0  0  0  0
   -1.1519   -1.2990    0.0000 F   0  0  0  0  0  0  0  0  0  0  0  0
   -3.2010   -1.8481    0.0000 C   0  0  0  0  0  0  0  0  0  0  0  0
   -4.7010   -1.8481    0.0000 N   0  0  0  0  0  0  0  0  0  0  0  0
   -2.4510   -3.1471    0.0000 O   0  0  0  0  0  0  0  0  0  0  0  0
    1.2990    3.3481    0.0000 C   0  0  0  0  0  0  0  0  0  0  0  0
    0.0000    4.0981    0.0000 C   0  0  0  0  0  0  0  0  0  0  0  0
    2.5981    2.5981    0.0000 C   0  0  0  0  0  0  0  0  0  0  0  0
    3.8971    3.3481    0.0000 O   0  0  0  0  0  0  0  0  0  0  0  0
    2.0490    4.6471    0.0000 C   0  0  0  0  0  0  0  0  0  0  0  0
    3.5490    4.6471    0.0000 O   0  0  0  0  0  0  0  0  0  0  0  0
  1  2  1  0
  2  3  1  0
  3  4  1  0
  2  5  1  0
  5  6  1  0
  2  7  1  0
  7  8  1  0
  8  9  2  0
  8 10  1  0
 10 11  1  0
 10 12  1  0
 10 13  1  0
 13 14  1  0
 13 15  1  0
 13 16  1  0
 16 17  1  0
 16 18  2  0
  7 19  1  0
 19 20  1  0
 19 21  1  0
 21 22  1  0
 19 23  1  0
 23 24  1  0
M  END
$$$$

     RDKit          2D

 10  9  0  0  0  0  0  0  0  0999 V2000
    3.8971    2.2500    0.0000 F   0  0  0  0  0  0  0  0  0  0  0  0
    2.5981    1.5000    0.0000 C   0  0  0  0  0  0  0  0  0  0  0  0
    1.8481    2.7990    0.0000 F   0  0  0  0  0  0  0  0  0  0  0  0
    3.3481    0.2010    0.0000 Cl  0  0  0  0  0  0  0  0  0  0  0  0
    1.2990    0.7500    0.0000 C   0  0  0  0  0  0  0  0  0  0  0  0
    2.0490   -0.5490    0.0000 F   0  0  0  0  0  0  0  0  0  0  0  0
    0.5490    2.0490    0.0000 F   0  0  0  0  0  0  0  0  0  0  0  0
    0.0000    0.0000    0.0000 C   0  0  0  0  0  0  0  0  0  0  0  0
   -1.2990    0.7500    0.0000 C   0  0  0  0  0  0  0  0  0  0  0  0
   -2.5981    0.0000    0.0000 I   0  0  0  0  0  0  0  0  0  0  0  0
  1  2  1  0
  2  3  1  0
  2  4  1  0
  2  5  1  0
  5  6  1  0
  5  7  1  0
  5  8  1  0
  8  9  2  3
  9 10  1  0
M  END
$$$$

     RDKit          2D

 22 22  0  0  0  0  0  0  0  0999 V2000
    9.0000   -7.7942    0.0000 F   0  0  0  0  0  0  0  0  0  0  0  0
    8.2500   -6.4952    0.0000 C   0  0  0  0  0  0  0  0  0  0  0  0
    6.9510   -7.2452    0.0000 F   0  0  0  0  0  0  0  0  0  0  0  0
    9.5490   -5.7452    0.0000 F   0  0  0  0  0  0  0  0  0  0  0  0
    7.5000   -5.1962    0.0000 C   0  0  0  0  0  0  0  0  0  0  0  0
    8.7990   -4.4462    0.0000 F   0  0  0  0  0  0  0  0  0  0  0  0
    6.2010   -5.9462    0.0000 F   0  0  0  0  0  0  0  0  0  0  0  0
    6.7500   -3.8971    0.0000 C   0  0  0  0  0  0  0  0  0  0  0  0
    5.4510   -4.6471    0.0000 F   0  0  0  0  0  0  0  0  0  0  0  0
    8.0490   -3.1471    0.0000 F   0  0  0  0  0  0  0  0  0  0  0  0
    6.0000   -2.5981    0.0000 C   0  0  0  0  0  0  0  0  0  0  0  0
    7.2990   -1.8481    0.0000 F   0  0  0  0  0  0  0  0  0  0  0  0
    4.7010   -3.3481    0.0000 F   0  0  0  0  0  0  0  0  0  0  0  0
    5.2500   -1.2990    0.0000 C   0  0  0  0  0  0  0  0  0  0  0  0
    3.7500   -1.2990    0.0000 C   0  0  0  0  0  0  0  0  0  0  0  0
    3.0000    0.0000    0.0000 C   0  0  0  0  0  0  0  0  0  0  0  0
    1.5000    0.0000    0.0000 C   0  0  0  0  0  0  0  0  0  0  0  0
    0.7500   -1.2990    0.0000 C   0  0  0  0  0  0  0  0  0  0  0  0
   -0.7500   -1.2990    0.0000 C   0  0  0  0  0  0  0  0  0  0  0  0
   -1.5000    0.0000    0.0000 C   0  0  0  0  0  0  0  0  0  0  0  0
   -0.7500    1.2990    0.0000 C   0  0  0  0  0  0  0  0  0  0  0  0
    0.7500    1.2990    0.0000 C   0  0  0  0  0  0  0  0  0  0  0  0
  1  2  1  0
  2  3  1  0
  2  4  1  0
  2  5  1  0
  5  6  1  0
  5  7  1  0
  5  8  1  0
  8  9  1  0
  8 10  1  0
  8 11  1  0
 11 12  1  0
 11 13  1  0
 11 14  1  0
 14 15  1  0
 15 16  2  3
 16 17  1  0
 17 18  2  0
 18 19  1  0
 19 20  2  0
 20 21  1  0
 21 22  2  0
 22 17  1  0
M  END
$$$$

     RDKit          2D

 31 30  0  0  0  0  0  0  0  0999 V2000
    0.0000    0.0000    0.0000 C   0  0  0  0  0  0  0  0  0  0  0  0
    1.2990    0.7500    0.0000 C   0  0  0  0  0  0  0  0  0  0  0  0
    2.5981   -0.0000    0.0000 C   0  0  0  0  0  0  0  0  0  0  0  0
    3.8971    0.7500    0.0000 C   0  0  0  0  0  0  0  0  0  0  0  0
    5.1962   -0.0000    0.0000 C   0  0  0  0  0  0  0  0  0  0  0  0
    6.4952    0.7500    0.0000 C   0  0  0  0  0  0  0  0  0  0  0  0
    7.7942   -0.0000    0.0000 C   0  0  0  0  0  0  0  0  0  0  0  0
    9.0933    0.7500    0.0000 C   0  0  0  0  0  0  0  0  0  0  0  0
   10.3923   -0.0000    0.0000 C   0  0  0  0  0  0  0  0  0  0  0  0
   11.6913    0.7500    0.0000 C   0  0  0  0  0  0  0  0  0  0  0  0
   12.9904   -0.0000    0.0000 C   0  0  0  0  0  0  0  0  0  0  0  0
   14.2894    0.7500    0.0000 C   0  0  0  0  0  0  0  0  0  0  0  0
   15.5885   -0.0000    0.0000 C   0  0  0  0  0  0  0  0  0  0  0  0
   16.3385    1.2990    0.0000 F   0  0  0  0  0  0  0  0  0  0  0  0
   14.8385   -1.2990    0.0000 F   0  0  0  0  0  0  0  0  0  0  0  0
   16.8875   -0.7500    0.0000 C   0  0  0  0  0  0  0  0  0  0  0  0
   16.1375   -2.0490    0.0000 F   0  0  0  0  0  0  0  0  0  0  0  0
   17.6375    0.5490    0.0000 F   0  0  0  0  0  0  0  0  0  0  0  0
   18.1865   -1.5000    0.0000 C   0  0  0  0  0  0  0  0  0  0  0  0
   18.9365   -0.2010    0.0000 F   0  0  0  0  0  0  0  0  0  0  0  0
   17.4365   -2.7990    0.0000 F   0  0  0  0  0  0  0  0  0  0  0  0
   19.4856   -2.2500    0.0000 C   0  0  0  0  0  0  0  0  0  0  0  0
   18.7356   -3.5490    0.0000 F   0  0  0  0  0  0  0  0  0  0  0  0
   20.2356   -0.9510    0.0000 F   0  0  0  0  0  0  0  0  0  0  0  0
   20.7846   -3.0000    0.0000 C   0  0  0  0  0  0  0  0  0  0  0  0
   21.5346   -1.7010    0.0000 F   0  0  0  0  0  0  0  0  0  0  0  0
   20.0346   -4.2990    0.0000 F   0  0  0  0  0  0  0  0  0  0  0  0
   22.0836   -3.7500    0.0000 C   0  0  0  0  0  0  0  0  0  0  0  0
   23.3827   -4.5000    0.0000 F   0  0  0  0  0  0  0  0  0  0  0  0
   21.3336   -5.0490    0.0000 F   0  0  0  0  0  0  0  0  0  0  0  0
   22.8336   -2.4510    0.0000 F   0  0  0  0  0  0  0  0  0  0  0  0
  1  2  1  0
  2  3  1  0
  3  4  1  0
  4  5  1  0
  5  6  1  0
  6  7  1  0
  7  8  1  0
  8  9  1  0
  9 10  1  0
 10 11  1  0
 11 12  2  3
 12 13  1  0
 13 14  1  0
 13 15  1  0
 13 16  1  0
 16 17  1  0
 16 18  1  0
 16 19  1  0
 19 20  1  0
 19 21  1  0
 19 22  1  0
 22 23  1  0
 22 24  1  0
 22 25  1  0
 25 26  1  0
 25 27  1  0
 25 28  1  0
 28 29  1  0
 28 30  1  0
 28 31  1  0
M  END
$$$$

     RDKit          2D

 27 26  0  0  0  0  0  0  0  0999 V2000
    0.0000    0.0000    0.0000 C   0  0  0  0  0  0  0  0  0  0  0  0
    1.2990    0.7500    0.0000 C   0  0  0  0  0  0  0  0  0  0  0  0
    2.5981   -0.0000    0.0000 C   0  0  0  0  0  0  0  0  0  0  0  0
    1.2990    2.2500    0.0000 C   0  0  0  0  0  0  0  0  0  0  0  0
    0.0000    3.0000    0.0000 O   0  0  0  0  0  0  0  0  0  0  0  0
    2.5981    3.0000    0.0000 O   0  0  0  0  0  0  0  0  0  0  0  0
    2.5981    4.5000    0.0000 C   0  0  0  0  0  0  0  0  0  0  0  0
    3.8971    5.2500    0.0000 C   0  0  0  0  0  0  0  0  0  0  0  0
    3.8971    6.7500    0.0000 N   0  0  0  0  0  0  0  0  0  0  0  0
    5.1962    7.5000    0.0000 C   0  0  0  0  0  0  0  0  0  0  0  0
    5.1962    9.0000    0.0000 C   0  0  0  0  0  0  0  0  0  0  0  0
    2.5981    7.5000    0.0000 S   0  0  0  0  0  0  0  0  0  0  0  0
    1.8481    6.2010    0.0000 O   0  0  0  0  0  0  0  0  0  0  0  0
    3.0778    8.1366    0.0000 O   0  0  0  0  0  0  0  0  0  0  0  0
    1.2990    8.2500    0.0000 C   0  0  0  0  0  0  0  0  0  0  0  0
    0.5490    6.9510    0.0000 F   0  0  0  0  0  0  0  0  0  0  0  0
   -0.0000    9.0000    0.0000 F   0  0  0  0  0  0  0  0  0  0  0  0
    2.0490    9.5490    0.0000 C   0  0  0  0  0  0  0  0  0  0  0  0
    0.7500   10.2990    0.0000 F   0  0  0  0  0  0  0  0  0  0  0  0
    2.8644    9.2030    0.0000 F   0  0  0  0  0  0  0  0  0  0  0  0
    2.7990   10.8481    0.0000 C   0  0  0  0  0  0  0  0  0  0  0  0
    4.0981   10.0981    0.0000 F   0  0  0  0  0  0  0  0  0  0  0  0
    1.5000   11.5981    0.0000 F   0  0  0  0  0  0  0  0  0  0  0  0
    3.5490   12.1471    0.0000 C   0  0  0  0  0  0  0  0  0  0  0  0
    4.2990   13.4462    0.0000 F   0  0  0  0  0  0  0  0  0  0  0  0
    4.8481   11.3971    0.0000 F   0  0  0  0  0  0  0  0  0  0  0  0
    2.2500   12.8971    0.0000 F   0  0  0  0  0  0  0  0  0  0  0  0
  1  2  2  0
  2  3  1  0
  2  4  1  0
  4  5  2  0
  4  6  1  0
  6  7  1  0
  7  8  1  0
  8  9  1  0
  9 10  1  0
 10 11  1  0
  9 12  1  0
 12 13  2  0
 12 14  2  0
 12 15  1  0
 15 16  1  0
 15 17  1  0
 15 18  1  0
 18 19  1  0
 18 20  1  0
 18 21  1  0
 21 22  1  0
 21 23  1  0
 21 24  1  0
 24 25  1  0
 24 26  1  0
 24 27  1  0
M  END
$$$$

     RDKit          2D

 11 10  0  0  0  0  0  0  0  0999 V2000
   -1.2990    0.7500    0.0000 O   0  0  0  0  0  0  0  0  0  0  0  0
    0.0000    0.0000    0.0000 C   0  0  0  0  0  0  0  0  0  0  0  0
   -0.0000   -1.5000    0.0000 O   0  0  0  0  0  0  0  0  0  0  0  0
   -1.2990   -2.2500    0.0000 O   0  0  0  0  0  0  0  0  0  0  0  0
    1.2990    0.7500    0.0000 C   0  0  0  0  0  0  0  0  0  0  0  0
    2.0490   -0.5490    0.0000 F   0  0  0  0  0  0  0  0  0  0  0  0
    0.5490    2.0490    0.0000 F   0  0  0  0  0  0  0  0  0  0  0  0
    2.5981    1.5000    0.0000 C   0  0  0  0  0  0  0  0  0  0  0  0
    3.8971    2.2500    0.0000 F   0  0  0  0  0  0  0  0  0  0  0  0
    1.8481    2.7990    0.0000 F   0  0  0  0  0  0  0  0  0  0  0  0
    3.3481    0.2010    0.0000 F   0  0  0  0  0  0  0  0  0  0  0  0
  1  2  2  0
  2  3  1  0
  3  4  1  0
  2  5  1  0
  5  6  1  0
  5  7  1  0
  5  8  1  0
  8  9  1  0
  8 10  1  0
  8 11  1  0
M  END
$$$$

     RDKit          2D

 25 26  0  0  0  0  0  0  0  0999 V2000
    3.0000   -2.5981    0.0000 O   0  0  0  0  0  0  0  0  0  0  0  0
    1.5000   -2.5981    0.0000 C   0  0  0  0  0  0  0  0  0  0  0  0
    0.7500   -1.2990    0.0000 C   0  0  0  0  0  0  0  0  0  0  0  0
    1.5000    0.0000    0.0000 C   0  0  0  0  0  0  0  0  0  0  0  0
    0.7500    1.2990    0.0000 C   0  0  0  0  0  0  0  0  0  0  0  0
   -0.7500    1.2990    0.0000 C   0  0  0  0  0  0  0  0  0  0  0  0
   -1.5000    2.5981    0.0000 F   0  0  0  0  0  0  0  0  0  0  0  0
   -1.5000    0.0000    0.0000 C   0  0  0  0  0  0  0  0  0  0  0  0
   -0.7500   -1.2990    0.0000 C   0  0  0  0  0  0  0  0  0  0  0  0
    0.7500   -3.8971    0.0000 C   0  0  0  0  0  0  0  0  0  0  0  0
   -0.7500   -3.8971    0.0000 C   0  0  0  0  0  0  0  0  0  0  0  0
   -1.5000   -5.1962    0.0000 C   0  0  0  0  0  0  0  0  0  0  0  0
   -0.7500   -6.4952    0.0000 C   0  0  0  0  0  0  0  0  0  0  0  0
   -1.5000   -7.7942    0.0000 O   0  0  0  0  0  0  0  0  0  0  0  0
   -3.0000   -7.7942    0.0000 C   0  0  0  0  0  0  0  0  0  0  0  0
   -3.0000   -6.2942    0.0000 F   0  0  0  0  0  0  0  0  0  0  0  0
   -3.0000   -9.2942    0.0000 F   0  0  0  0  0  0  0  0  0  0  0  0
   -4.5000   -7.7942    0.0000 C   0  0  0  0  0  0  0  0  0  0  0  0
   -5.2500   -9.0933    0.0000 F   0  0  0  0  0  0  0  0  0  0  0  0
   -5.2500   -6.4952    0.0000 C   0  0  0  0  0  0  0  0  0  0  0  0
   -6.0000   -5.1962    0.0000 F   0  0  0  0  0  0  0  0  0  0  0  0
   -6.5490   -7.2452    0.0000 F   0  0  0  0  0  0  0  0  0  0  0  0
   -3.9510   -5.7452    0.0000 F   0  0  0  0  0  0  0  0  0  0  0  0
    0.7500   -6.4952    0.0000 C   0  0  0  0  0  0  0  0  0  0  0  0
    1.5000   -5.1962    0.0000 C   0  0  0  0  0  0  0  0  0  0  0  0
  1  2  2  0
  2  3  1  0
  3  4  2  0
  4  5  1  0
  5  6  2  0
  6  7  1  0
  6  8  1  0
  8  9  2  0
  2 10  1  0
 10 11  2  0
 11 12  1  0
 12 13  2  0
 13 14  1  0
 14 15  1  0
 15 16  1  0
 15 17  1  0
 15 18  1  0
 18 19  1  0
 18 20  1  0
 20 21  1  0
 20 22  1  0
 20 23  1  0
 13 24  1  0
 24 25  2  0
  9  3  1  0
 25 10  1  0
M  END
$$$$

     RDKit          2D

 49 47  0  0  0  0  0  0  0  0999 V2000
    0.0000    0.0000    0.0000 C   0  0  0  0  0  0  0  0  0  0  0  0
    1.2990    0.7500    0.0000 C   0  0  0  0  0  0  0  0  0  0  0  0
    2.5981   -0.0000    0.0000 N   0  0  0  0  0  0  0  0  0  0  0  0
   -0.0000    1.7500    0.0000 O   0  0  0  0  0  0  0  0  0  0  0  0
    0.0000    3.2500    0.0000 C   0  0  0  0  0  0  0  0  0  0  0  0
   -1.2990    4.0000    0.0000 O   0  0  0  0  0  0  0  0  0  0  0  0
    1.2990    4.0000    0.0000 C   0  0  0  0  0  0  0  0  0  0  0  0
    2.0490    2.7010    0.0000 F   0  0  0  0  0  0  0  0  0  0  0  0
    0.5490    5.2990    0.0000 F   0  0  0  0  0  0  0  0  0  0  0  0
    2.5981    4.7500    0.0000 C   0  0  0  0  0  0  0  0  0  0  0  0
    1.8481    6.0490    0.0000 F   0  0  0  0  0  0  0  0  0  0  0  0
    3.3481    3.4510    0.0000 F   0  0  0  0  0  0  0  0  0  0  0  0
    3.8971    5.5000    0.0000 C   0  0  0  0  0  0  0  0  0  0  0  0
    4.6471    4.2010    0.0000 F   0  0  0  0  0  0  0  0  0  0  0  0
    3.1471    6.7990    0.0000 F   0  0  0  0  0  0  0  0  0  0  0  0
    5.1962    6.2500    0.0000 C   0  0  0  0  0  0  0  0  0  0  0  0
    4.4462    7.5490    0.0000 F   0  0  0  0  0  0  0  0  0  0  0  0
    5.9462    4.9510    0.0000 F   0  0  0  0  0  0  0  0  0  0  0  0
    6.4952    7.0000    0.0000 C   0  0  0  0  0  0  0  0  0  0  0  0
    7.2452    5.7010    0.0000 F   0  0  0  0  0  0  0  0  0  0  0  0
    5.7452    8.2990    0.0000 F   0  0  0  0  0  0  0  0  0  0  0  0
    7.7942    7.7500    0.0000 C   0  0  0  0  0  0  0  0  0  0  0  0
    7.0442    9.0490    0.0000 F   0  0  0  0  0  0  0  0  0  0  0  0
    8.5442    6.4510    0.0000 F   0  0  0  0  0  0  0  0  0  0  0  0
    9.0933    8.5000    0.0000 C   0  0  0  0  0  0  0  0  0  0  0  0
    8.3433    9.7990    0.0000 F   0  0  0  0  0  0  0  0  0  0  0  0
    9.8433    7.2010    0.0000 F   0  0  0  0  0  0  0  0  0  0  0  0
   10.3923    9.2500    0.0000 C   0  0  0  0  0  0  0  0  0  0  0  0
   11.1423    7.9510    0.0000 F   0  0  0  0  0  0  0  0  0  0  0  0
    9.6423   10.5490    0.0000 F   0  0  0  0  0  0  0  0  0  0  0  0
   11.6913   10.0000    0.0000 C   0  0  0  0  0  0  0  0  0  0  0  0
   10.9413   11.2990    0.0000 F   0  0  0  0  0  0  0  0  0  0  0  0
   12.4413    8.7010    0.0000 F   0  0  0  0  0  0  0  0  0  0  0  0
   12.9904   10.7500    0.0000 C   0  0  0  0  0  0  0  0  0  0  0  0
   13.7404    9.4510    0.0000 F   0  0  0  0  0  0  0  0  0  0  0  0
   12.2404   12.0490    0.0000 F   0  0  0  0  0  0  0  0  0  0  0  0
   14.2894   11.5000    0.0000 C   0  0  0  0  0  0  0  0  0  0  0  0
   13.7564   12.2074    0.0000 F   0  0  0  0  0  0  0  0  0  0  0  0
   15.0394   10.2010    0.0000 F   0  0  0  0  0  0  0  0  0  0  0  0
   15.5885   12.2500    0.0000 C   0  0  0  0  0  0  0  0  0  0  0  0
   16.3385   10.9510    0.0000 F   0  0  0  0  0  0  0  0  0  0  0  0
   16.8875   13.0000    0.0000 C   0  0  0  0  0  0  0  0  0  0  0  0
   18.1865   13.7500    0.0000 F   0  0  0  0  0  0  0  0  0  0  0  0
   17.6375   11.7010    0.0000 F   0  0  0  0  0  0  0  0  0  0  0  0
   16.5414   13.8153    0.0000 F   0  0  0  0  0  0  0  0  0  0  0  0
   14.8385   13.5490    0.0000 C   0  0  0  0  0  0  0  0  0  0  0  0
   14.0885   14.8481    0.0000 F   0  0  0  0  0  0  0  0  0  0  0  0
   15.5458   14.0821    0.0000 F   0  0  0  0  0  0  0  0  0  0  0  0
   14.0231   13.2030    0.0000 F   0  0  0  0  0  0  0  0  0  0  0  0
  1  2  1  0
  2  3  1  0
  4  5  2  0
  5  6  1  0
  5  7  1  0
  7  8  1  0
  7  9  1  0
  7 10  1  0
 10 11  1  0
 10 12  1  0
 10 13  1  0
 13 14  1  0
 13 15  1  0
 13 16  1  0
 16 17  1  0
 16 18  1  0
 16 19  1  0
 19 20  1  0
 19 21  1  0
 19 22  1  0
 22 23  1  0
 22 24  1  0
 22 25  1  0
 25 26  1  0
 25 27  1  0
 25 28  1  0
 28 29  1  0
 28 30  1  0
 28 31  1  0
 31 32  1  0
 31 33  1  0
 31 34  1  0
 34 35  1  0
 34 36  1  0
 34 37  1  0
 37 38  1  0
 37 39  1  0
 37 40  1  0
 40 41  1  0
 40 42  1  0
 42 43  1  0
 42 44  1  0
 42 45  1  0
 40 46  1  0
 46 47  1  0
 46 48  1  0
 46 49  1  0
M  CHG  2   3   1   6  -1
M  END
$$$$

     RDKit          2D

 14 14  0  0  0  0  0  0  0  0999 V2000
    6.0000    0.0000    0.0000 F   0  0  0  0  0  0  0  0  0  0  0  0
    4.5000    0.0000    0.0000 C   0  0  0  0  0  0  0  0  0  0  0  0
    4.5000    1.5000    0.0000 F   0  0  0  0  0  0  0  0  0  0  0  0
    4.5000   -1.5000    0.0000 F   0  0  0  0  0  0  0  0  0  0  0  0
    3.0000    0.0000    0.0000 C   0  0  0  0  0  0  0  0  0  0  0  0
    3.0000   -1.5000    0.0000 F   0  0  0  0  0  0  0  0  0  0  0  0
    3.0000    1.5000    0.0000 F   0  0  0  0  0  0  0  0  0  0  0  0
    1.5000    0.0000    0.0000 C   0  0  0  0  0  0  0  0  0  0  0  0
    0.7500   -1.2990    0.0000 C   0  0  0  0  0  0  0  0  0  0  0  0
   -0.7500   -1.2990    0.0000 C   0  0  0  0  0  0  0  0  0  0  0  0
   -1.5000    0.0000    0.0000 C   0  0  0  0  0  0  0  0  0  0  0  0
   -0.7500    1.2990    0.0000 C   0  0  0  0  0  0  0  0  0  0  0  0
   -1.5000    2.5981    0.0000 Br  0  0  0  0  0  0  0  0  0  0  0  0
    0.7500    1.2990    0.0000 C   0  0  0  0  0  0  0  0  0  0  0  0
  1  2  1  0
  2  3  1  0
  2  4  1  0
  2  5  1  0
  5  6  1  0
  5  7  1  0
  5  8  1  0
  8  9  2  0
  9 10  1  0
 10 11  2  0
 11 12  1  0
 12 13  1  0
 12 14  2  0
 14  8  1  0
M  END
$$$$

     RDKit          2D

 13 12  0  0  0  0  0  0  0  0999 V2000
    0.0000    0.0000    0.0000 C   0  0  0  0  0  0  0  0  0  0  0  0
    1.2990    0.7500    0.0000 C   0  0  0  0  0  0  0  0  0  0  0  0
    2.5981   -0.0000    0.0000 C   0  0  0  0  0  0  0  0  0  0  0  0
    1.2990    2.2500    0.0000 O   0  0  0  0  0  0  0  0  0  0  0  0
    2.5981    3.0000    0.0000 C   0  0  0  0  0  0  0  0  0  0  0  0
    3.3481    1.7010    0.0000 F   0  0  0  0  0  0  0  0  0  0  0  0
    1.8481    4.2990    0.0000 F   0  0  0  0  0  0  0  0  0  0  0  0
    3.8971    3.7500    0.0000 C   0  0  0  0  0  0  0  0  0  0  0  0
    3.1471    5.0490    0.0000 F   0  0  0  0  0  0  0  0  0  0  0  0
    4.6471    2.4510    0.0000 F   0  0  0  0  0  0  0  0  0  0  0  0
    5.1962    4.5000    0.0000 C   0  0  0  0  0  0  0  0  0  0  0  0
    5.1962    6.0000    0.0000 F   0  0  0  0  0  0  0  0  0  0  0  0
    6.4952    3.7500    0.0000 F   0  0  0  0  0  0  0  0  0  0  0  0
  1  2  1  0
  2  3  1  0
  2  4  1  0
  4  5  1  0
  5  6  1  0
  5  7  1  0
  5  8  1  0
  8  9  1  0
  8 10  1  0
  8 11  1  0
 11 12  1  0
 11 13  1  0
M  END
$$$$

     RDKit          2D

 10  9  0  0  0  0  0  0  0  0999 V2000
    0.0000    0.0000    0.0000 C   0  0  0  0  0  0  0  0  0  0  0  0
    1.2990    0.7500    0.0000 O   0  0  0  0  0  0  0  0  0  0  0  0
    2.5981   -0.0000    0.0000 C   0  0  0  0  0  0  0  0  0  0  0  0
    2.5981   -1.5000    0.0000 F   0  0  0  0  0  0  0  0  0  0  0  0
    3.8971    0.7500    0.0000 C   0  0  0  0  0  0  0  0  0  0  0  0
    3.8971    2.2500    0.0000 F   0  0  0  0  0  0  0  0  0  0  0  0
    5.1962   -0.0000    0.0000 C   0  0  0  0  0  0  0  0  0  0  0  0
    6.4952   -0.7500    0.0000 F   0  0  0  0  0  0  0  0  0  0  0  0
    5.9462    1.2990    0.0000 F   0  0  0  0  0  0  0  0  0  0  0  0
    4.4462   -1.2990    0.0000 F   0  0  0  0  0  0  0  0  0  0  0  0
  1  2  1  0
  2  3  1  0
  3  4  1  0
  3  5  2  3
  5  6  1  0
  5  7  1  0
  7  8  1  0
  7  9  1  0
  7 10  1  0
M  END
$$$$

     RDKit          2D

 23 22  0  0  0  0  0  0  0  0999 V2000
    0.5490   -2.0490    0.0000 O   0  0  0  0  0  0  0  0  0  0  0  0
   -0.7500   -1.2990    0.0000 C   0  0  0  0  0  0  0  0  0  0  0  0
    0.0000    0.0000    0.0000 C   0  0  0  0  0  0  0  0  0  0  0  0
    1.5000    0.0000    0.0000 C   0  0  0  0  0  0  0  0  0  0  0  0
    2.2500   -1.2990    0.0000 C   0  0  0  0  0  0  0  0  0  0  0  0
    3.7500   -1.2990    0.0000 C   0  0  0  0  0  0  0  0  0  0  0  0
    3.7500    0.2010    0.0000 O   0  0  0  0  0  0  0  0  0  0  0  0
    5.2500   -1.2990    0.0000 C   0  0  0  0  0  0  0  0  0  0  0  0
    6.7500   -1.2990    0.0000 F   0  0  0  0  0  0  0  0  0  0  0  0
    5.2500    0.2010    0.0000 F   0  0  0  0  0  0  0  0  0  0  0  0
    5.3580   -2.1782    0.0000 F   0  0  0  0  0  0  0  0  0  0  0  0
    3.7500   -2.7990    0.0000 C   0  0  0  0  0  0  0  0  0  0  0  0
    3.7500   -4.2990    0.0000 F   0  0  0  0  0  0  0  0  0  0  0  0
    4.6291   -2.9070    0.0000 F   0  0  0  0  0  0  0  0  0  0  0  0
    2.2500   -2.7990    0.0000 F   0  0  0  0  0  0  0  0  0  0  0  0
   -1.5000   -2.5981    0.0000 C   0  0  0  0  0  0  0  0  0  0  0  0
   -2.2500   -3.8971    0.0000 F   0  0  0  0  0  0  0  0  0  0  0  0
   -0.2010   -3.3481    0.0000 F   0  0  0  0  0  0  0  0  0  0  0  0
   -2.3153   -2.2520    0.0000 F   0  0  0  0  0  0  0  0  0  0  0  0
   -2.0490   -0.5490    0.0000 C   0  0  0  0  0  0  0  0  0  0  0  0
   -3.3481    0.2010    0.0000 F   0  0  0  0  0  0  0  0  0  0  0  0
   -2.5821   -1.2564    0.0000 F   0  0  0  0  0  0  0  0  0  0  0  0
   -1.2990    0.7500    0.0000 F   0  0  0  0  0  0  0  0  0  0  0  0
  1  2  1  0
  2  3  1  0
  3  4  2  0
  4  5  1  0
  5  6  1  0
  6  7  1  0
  6  8  1  0
  8  9  1  0
  8 10  1  0
  8 11  1  0
  6 12  1  0
 12 13  1  0
 12 14  1  0
 12 15  1  0
  2 16  1  0
 16 17  1  0
 16 18  1  0
 16 19  1  0
  2 20  1  0
 20 21  1  0
 20 22  1  0
 20 23  1  0
M  END
$$$$

     RDKit          2D

 35 34  0  0  0  0  0  0  0  0999 V2000
    0.0000    0.0000    0.0000 C   0  0  0  0  0  0  0  0  0  0  0  0
    1.2990    0.7500    0.0000 N   0  0  0  0  0  0  0  0  0  0  0  0
    2.5981   -0.0000    0.0000 C   0  0  0  0  0  0  0  0  0  0  0  0
    3.8971    0.7500    0.0000 C   0  0  0  0  0  0  0  0  0  0  0  0
    5.1962    0.0000    0.0000 C   0  0  0  0  0  0  0  0  0  0  0  0
    6.4952    0.7500    0.0000 C   0  0  0  0  0  0  0  0  0  0  0  0
    7.7942   -0.0000    0.0000 O   0  0  0  0  0  0  0  0  0  0  0  0
    1.2990    2.2500    0.0000 S   0  0  0  0  0  0  0  0  0  0  0  0
    0.5078    2.1528    0.0000 O   0  0  0  0  0  0  0  0  0  0  0  0
    2.7990    2.2500    0.0000 O   0  0  0  0  0  0  0  0  0  0  0  0
    1.2990    3.7500    0.0000 C   0  0  0  0  0  0  0  0  0  0  0  0
    2.7990    3.7500    0.0000 F   0  0  0  0  0  0  0  0  0  0  0  0
    1.2990    5.2500    0.0000 F   0  0  0  0  0  0  0  0  0  0  0  0
   -0.2010    3.7500    0.0000 C   0  0  0  0  0  0  0  0  0  0  0  0
   -0.3089    2.8709    0.0000 F   0  0  0  0  0  0  0  0  0  0  0  0
   -0.2010    5.2500    0.0000 F   0  0  0  0  0  0  0  0  0  0  0  0
   -1.7010    3.7500    0.0000 C   0  0  0  0  0  0  0  0  0  0  0  0
   -1.7010    2.2500    0.0000 F   0  0  0  0  0  0  0  0  0  0  0  0
   -1.7010    5.2500    0.0000 F   0  0  0  0  0  0  0  0  0  0  0  0
   -3.2010    3.7500    0.0000 C   0  0  0  0  0  0  0  0  0  0  0  0
   -3.2010    5.2500    0.0000 F   0  0  0  0  0  0  0  0  0  0  0  0
   -3.2010    2.2500    0.0000 F   0  0  0  0  0  0  0  0  0  0  0  0
   -4.7010    3.7500    0.0000 C   0  0  0  0  0  0  0  0  0  0  0  0
   -4.7010    5.2500    0.0000 F   0  0  0  0  0  0  0  0  0  0  0  0
   -4.7010    2.2500    0.0000 F   0  0  0  0  0  0  0  0  0  0  0  0
   -6.2010    3.7500    0.0000 C   0  0  0  0  0  0  0  0  0  0  0  0
   -6.2010    2.2500    0.0000 F   0  0  0  0  0  0  0  0  0  0  0  0
   -6.2010    5.2500    0.0000 F   0  0  0  0  0  0  0  0  0  0  0  0
   -7.7010    3.7500    0.0000 C   0  0  0  0  0  0  0  0  0  0  0  0
   -7.7010    5.2500    0.0000 F   0  0  0  0  0  0  0  0  0  0  0  0
   -7.7010    2.2500    0.0000 F   0  0  0  0  0  0  0  0  0  0  0  0
   -9.2010    3.7500    0.0000 C   0  0  0  0  0  0  0  0  0  0  0  0
  -10.7010    3.7500    0.0000 F   0  0  0  0  0  0  0  0  0  0  0  0
   -9.2010    2.2500    0.0000 F   0  0  0  0  0  0  0  0  0  0  0  0
   -9.2010    5.2500    0.0000 F   0  0  0  0  0  0  0  0  0  0  0  0
  1  2  1  0
  2  3  1  0
  3  4  1  0
  4  5  1  0
  5  6  1  0
  6  7  1  0
  2  8  1  0
  8  9  2  0
  8 10  2  0
  8 11  1  0
 11 12  1  0
 11 13  1  0
 11 14  1  0
 14 15  1  0
 14 16  1  0
 14 17  1  0
 17 18  1  0
 17 19  1  0
 17 20  1  0
 20 21  1  0
 20 22  1  0
 20 23  1  0
 23 24  1  0
 23 25  1  0
 23 26  1  0
 26 27  1  0
 26 28  1  0
 26 29  1  0
 29 30  1  0
 29 31  1  0
 29 32  1  0
 32 33  1  0
 32 34  1  0
 32 35  1  0
M  END
$$$$

     RDKit          2D

 38 37  0  0  0  0  0  0  0  0999 V2000
    0.0000    0.0000    0.0000 C   0  0  0  0  0  0  0  0  0  0  0  0
    1.2990    0.7500    0.0000 C   0  0  0  0  0  0  0  0  0  0  0  0
    2.5981   -0.0000    0.0000 N   0  0  0  0  0  0  0  0  0  0  0  0
    3.8971    0.7500    0.0000 C   0  0  0  0  0  0  0  0  0  0  0  0
    5.1962   -0.0000    0.0000 C   0  0  0  0  0  0  0  0  0  0  0  0
    6.4952    0.7500    0.0000 C   0  0  0  0  0  0  0  0  0  0  0  0
    7.7942   -0.0000    0.0000 Si  0  0  0  0  0  4  0  0  0  0  0  0
    9.0933   -0.7500    0.0000 O   0  0  0  0  0  0  0  0  0  0  0  0
    9.0933   -2.2500    0.0000 C   0  0  0  0  0  0  0  0  0  0  0  0
    8.5442    1.2990    0.0000 O   0  0  0  0  0  0  0  0  0  0  0  0
   10.0442    1.2990    0.0000 C   0  0  0  0  0  0  0  0  0  0  0  0
    7.0442   -1.2990    0.0000 O   0  0  0  0  0  0  0  0  0  0  0  0
    7.7942   -2.5981    0.0000 C   0  0  0  0  0  0  0  0  0  0  0  0
    2.5981   -1.5000    0.0000 S   0  0  0  0  0  0  0  0  0  0  0  0
    1.8069   -1.4028    0.0000 O   0  0  0  0  0  0  0  0  0  0  0  0
    4.0981   -1.5000    0.0000 O   0  0  0  0  0  0  0  0  0  0  0  0
    2.5981   -3.0000    0.0000 C   0  0  0  0  0  0  0  0  0  0  0  0
    4.0981   -3.0000    0.0000 F   0  0  0  0  0  0  0  0  0  0  0  0
    2.5981   -4.5000    0.0000 F   0  0  0  0  0  0  0  0  0  0  0  0
    1.0981   -3.0000    0.0000 C   0  0  0  0  0  0  0  0  0  0  0  0
    0.9901   -2.1209    0.0000 F   0  0  0  0  0  0  0  0  0  0  0  0
    1.0981   -4.5000    0.0000 F   0  0  0  0  0  0  0  0  0  0  0  0
   -0.4019   -3.0000    0.0000 C   0  0  0  0  0  0  0  0  0  0  0  0
   -0.4019   -1.5000    0.0000 F   0  0  0  0  0  0  0  0  0  0  0  0
   -0.4019   -4.5000    0.0000 F   0  0  0  0  0  0  0  0  0  0  0  0
   -1.9019   -3.0000    0.0000 C   0  0  0  0  0  0  0  0  0  0  0  0
   -1.9019   -4.5000    0.0000 F   0  0  0  0  0  0  0  0  0  0  0  0
   -1.9019   -1.5000    0.0000 F   0  0  0  0  0  0  0  0  0  0  0  0
   -3.4019   -3.0000    0.0000 C   0  0  0  0  0  0  0  0  0  0  0  0
   -3.4019   -4.5000    0.0000 F   0  0  0  0  0  0  0  0  0  0  0  0
   -3.4019   -1.5000    0.0000 F   0  0  0  0  0  0  0  0  0  0  0  0
   -4.9019   -3.0000    0.0000 C   0  0  0  0  0  0  0  0  0  0  0  0
   -4.9019   -1.5000    0.0000 F   0  0  0  0  0  0  0  0  0  0  0  0
   -4.9019   -4.5000    0.0000 F   0  0  0  0  0  0  0  0  0  0  0  0
   -6.4019   -3.0000    0.0000 C   0  0  0  0  0  0  0  0  0  0  0  0
   -7.9019   -3.0000    0.0000 F   0  0  0  0  0  0  0  0  0  0  0  0
   -6.4019   -4.5000    0.0000 F   0  0  0  0  0  0  0  0  0  0  0  0
   -6.4019   -1.5000    0.0000 F   0  0  0  0  0  0  0  0  0  0  0  0
  1  2  1  0
  2  3  1  0
  3  4  1  0
  4  5  1  0
  5  6  1  0
  6  7  1  0
  7  8  1  0
  8  9  1  0
  7 10  1  0
 10 11  1  0
  7 12  1  0
 12 13  1  0
  3 14  1  0
 14 15  2  0
 14 16  2  0
 14 17  1  0
 17 18  1  0
 17 19  1  0
 17 20  1  0
 20 21  1  0
 20 22  1  0
 20 23  1  0
 23 24  1  0
 23 25  1  0
 23 26  1  0
 26 27  1  0
 26 28  1  0
 26 29  1  0
 29 30  1  0
 29 31  1  0
 29 32  1  0
 32 33  1  0
 32 34  1  0
 32 35  1  0
 35 36  1  0
 35 37  1  0
 35 38  1  0
M  END
$$$$

     RDKit          2D

 16 15  0  0  0  0  0  0  0  0999 V2000
    1.5000    0.0000    0.0000 C   0  0  0  0  0  0  0  0  0  0  0  0
    0.7500   -1.2990    0.0000 C   0  0  0  0  0  0  0  0  0  0  0  0
   -0.7500   -1.2990    0.0000 N   0  0  0  0  0  0  0  0  0  0  0  0
   -1.5000    0.0000    0.0000 C   0  0  0  0  0  0  0  0  0  0  0  0
   -0.7500    1.2990    0.0000 C   0  0  0  0  0  0  0  0  0  0  0  0
    0.7500    1.2990    0.0000 N   0  0  0  0  0  0  0  0  0  0  0  0
   -0.0000    2.2990    0.0000 O   0  0  0  0  0  0  0  0  0  0  0  0
    0.0000    3.7990    0.0000 C   0  0  0  0  0  0  0  0  0  0  0  0
   -1.2990    4.5490    0.0000 O   0  0  0  0  0  0  0  0  0  0  0  0
    1.2990    4.5490    0.0000 C   0  0  0  0  0  0  0  0  0  0  0  0
    2.0490    3.2500    0.0000 F   0  0  0  0  0  0  0  0  0  0  0  0
    0.5490    5.8481    0.0000 F   0  0  0  0  0  0  0  0  0  0  0  0
    2.5981    5.2990    0.0000 C   0  0  0  0  0  0  0  0  0  0  0  0
    3.8971    6.0490    0.0000 F   0  0  0  0  0  0  0  0  0  0  0  0
    1.8481    6.5981    0.0000 F   0  0  0  0  0  0  0  0  0  0  0  0
    3.3481    4.0000    0.0000 F   0  0  0  0  0  0  0  0  0  0  0  0
  1  2  1  0
  2  3  1  0
  3  4  1  0
  4  5  1  0
  5  6  1  0
  7  8  2  0
  8  9  1  0
  8 10  1  0
 10 11  1  0
 10 12  1  0
 10 13  1  0
 13 14  1  0
 13 15  1  0
 13 16  1  0
  6  1  1  0
M  END
$$$$

     RDKit          2D

 12 10  0  0  0  0  0  0  0  0999 V2000
   -1.5000    0.0000    0.0000 F   0  0  0  0  0  0  0  0  0  0  0  0
    0.0000    0.0000    0.0000 B   0  0  0  0  0  0  0  0  0  0  0  0
    0.0000    1.5000    0.0000 F   0  0  0  0  0  0  0  0  0  0  0  0
   -0.0000   -1.5000    0.0000 F   0  0  0  0  0  0  0  0  0  0  0  0
    1.5000    0.0000    0.0000 C   0  0  0  0  0  0  0  0  0  0  0  0
    1.5000   -1.5000    0.0000 F   0  0  0  0  0  0  0  0  0  0  0  0
    1.5000    1.5000    0.0000 F   0  0  0  0  0  0  0  0  0  0  0  0
    3.0000    0.0000    0.0000 C   0  0  0  0  0  0  0  0  0  0  0  0
    4.5000    0.0000    0.0000 F   0  0  0  0  0  0  0  0  0  0  0  0
    3.0000    1.5000    0.0000 F   0  0  0  0  0  0  0  0  0  0  0  0
    3.0000   -1.5000    0.0000 F   0  0  0  0  0  0  0  0  0  0  0  0
    0.0000    2.5000    0.0000 K   0  0  0  0  0 15  0  0  0  0  0  0
  1  2  1  0
  2  3  1  0
  2  4  1  0
  2  5  1  0
  5  6  1  0
  5  7  1  0
  5  8  1  0
  8  9  1  0
  8 10  1  0
  8 11  1  0
M  CHG  2   2  -1  12   1
M  END
$$$$

     RDKit          2D

 29 28  0  0  0  0  0  0  0  0999 V2000
    0.0000    0.0000    0.0000 C   0  0  0  0  0  0  0  0  0  0  0  0
    1.2990    0.7500    0.0000 C   0  0  0  0  0  0  0  0  0  0  0  0
    2.5981   -0.0000    0.0000 N   0  0  0  0  0  0  0  0  0  0  0  0
    3.8971    0.7500    0.0000 C   0  0  0  0  0  0  0  0  0  0  0  0
    5.1962   -0.0000    0.0000 C   0  0  0  0  0  0  0  0  0  0  0  0
    5.1962   -1.5000    0.0000 O   0  0  0  0  0  0  0  0  0  0  0  0
    6.4952    0.7500    0.0000 O   0  0  0  0  0  0  0  0  0  0  0  0
    2.5981   -1.5000    0.0000 S   0  0  0  0  0  0  0  0  0  0  0  0
    1.8069   -1.4028    0.0000 O   0  0  0  0  0  0  0  0  0  0  0  0
    4.0981   -1.5000    0.0000 O   0  0  0  0  0  0  0  0  0  0  0  0
    2.5981   -3.0000    0.0000 C   0  0  0  0  0  0  0  0  0  0  0  0
    4.0981   -3.0000    0.0000 F   0  0  0  0  0  0  0  0  0  0  0  0
    2.5981   -4.5000    0.0000 F   0  0  0  0  0  0  0  0  0  0  0  0
    1.0981   -3.0000    0.0000 C   0  0  0  0  0  0  0  0  0  0  0  0
    0.9901   -2.1209    0.0000 F   0  0  0  0  0  0  0  0  0  0  0  0
    1.0981   -4.5000    0.0000 F   0  0  0  0  0  0  0  0  0  0  0  0
   -0.4019   -3.0000    0.0000 C   0  0  0  0  0  0  0  0  0  0  0  0
   -0.4019   -1.5000    0.0000 F   0  0  0  0  0  0  0  0  0  0  0  0
   -0.4019   -4.5000    0.0000 F   0  0  0  0  0  0  0  0  0  0  0  0
   -1.9019   -3.0000    0.0000 C   0  0  0  0  0  0  0  0  0  0  0  0
   -1.9019   -1.5000    0.0000 F   0  0  0  0  0  0  0  0  0  0  0  0
   -1.9019   -4.5000    0.0000 F   0  0  0  0  0  0  0  0  0  0  0  0
   -3.4019   -3.0000    0.0000 C   0  0  0  0  0  0  0  0  0  0  0  0
   -3.4019   -4.5000    0.0000 F   0  0  0  0  0  0  0  0  0  0  0  0
   -3.4019   -1.5000    0.0000 F   0  0  0  0  0  0  0  0  0  0  0  0
   -4.9019   -3.0000    0.0000 C   0  0  0  0  0  0  0  0  0  0  0  0
   -6.4019   -3.0000    0.0000 F   0  0  0  0  0  0  0  0  0  0  0  0
   -4.9019   -1.5000    0.0000 F   0  0  0  0  0  0  0  0  0  0  0  0
   -4.9019   -4.5000    0.0000 F   0  0  0  0  0  0  0  0  0  0  0  0
  1  2  1  0
  2  3  1  0
  3  4  1  0
  4  5  1  0
  5  6  2  0
  5  7  1  0
  3  8  1  0
  8  9  2  0
  8 10  2  0
  8 11  1  0
 11 12  1  0
 11 13  1  0
 11 14  1  0
 14 15  1  0
 14 16  1  0
 14 17  1  0
 17 18  1  0
 17 19  1  0
 17 20  1  0
 20 21  1  0
 20 22  1  0
 20 23  1  0
 23 24  1  0
 23 25  1  0
 23 26  1  0
 26 27  1  0
 26 28  1  0
 26 29  1  0
M  END
$$$$

     RDKit          2D

 35 34  0  0  0  0  0  0  0  0999 V2000
    1.5000    0.0000    0.0000 C   0  0  0  0  0  0  0  0  0  0  0  0
    0.7500   -1.2990    0.0000 C   0  0  0  0  0  0  0  0  0  0  0  0
   -0.7500   -1.2990    0.0000 C   0  0  0  0  0  0  0  0  0  0  0  0
   -1.5000    0.0000    0.0000 N   0  0  0  0  0  0  0  0  0  0  0  0
   -0.7500    1.2990    0.0000 C   0  0  0  0  0  0  0  0  0  0  0  0
    0.7500    1.2990    0.0000 C   0  0  0  0  0  0  0  0  0  0  0  0
   -1.5000    3.7990    0.0000 O   0  0  0  0  0  0  0  0  0  0  0  0
    0.0000    3.7990    0.0000 S   0  0  0  0  0  0  0  0  0  0  0  0
    0.7912    3.7019    0.0000 O   0  0  0  0  0  0  0  0  0  0  0  0
   -0.0000    2.2990    0.0000 O   0  0  0  0  0  0  0  0  0  0  0  0
    0.0000    5.2990    0.0000 C   0  0  0  0  0  0  0  0  0  0  0  0
   -1.5000    5.2990    0.0000 F   0  0  0  0  0  0  0  0  0  0  0  0
    0.0000    6.7990    0.0000 F   0  0  0  0  0  0  0  0  0  0  0  0
    1.5000    5.2990    0.0000 C   0  0  0  0  0  0  0  0  0  0  0  0
    1.5000    6.7990    0.0000 F   0  0  0  0  0  0  0  0  0  0  0  0
    1.6080    4.4199    0.0000 F   0  0  0  0  0  0  0  0  0  0  0  0
    3.0000    5.2990    0.0000 C   0  0  0  0  0  0  0  0  0  0  0  0
    3.0000    3.7990    0.0000 F   0  0  0  0  0  0  0  0  0  0  0  0
    3.0000    6.7990    0.0000 F   0  0  0  0  0  0  0  0  0  0  0  0
    4.5000    5.2990    0.0000 C   0  0  0  0  0  0  0  0  0  0  0  0
    4.5000    6.7990    0.0000 F   0  0  0  0  0  0  0  0  0  0  0  0
    4.5000    3.7990    0.0000 F   0  0  0  0  0  0  0  0  0  0  0  0
    6.0000    5.2990    0.0000 C   0  0  0  0  0  0  0  0  0  0  0  0
    6.0000    6.7990    0.0000 F   0  0  0  0  0  0  0  0  0  0  0  0
    6.0000    3.7990    0.0000 F   0  0  0  0  0  0  0  0  0  0  0  0
    7.5000    5.2990    0.0000 C   0  0  0  0  0  0  0  0  0  0  0  0
    7.5000    3.7990    0.0000 F   0  0  0  0  0  0  0  0  0  0  0  0
    7.5000    6.7990    0.0000 F   0  0  0  0  0  0  0  0  0  0  0  0
    9.0000    5.2990    0.0000 C   0  0  0  0  0  0  0  0  0  0  0  0
    9.0000    6.7990    0.0000 F   0  0  0  0  0  0  0  0  0  0  0  0
    9.0000    3.7990    0.0000 F   0  0  0  0  0  0  0  0  0  0  0  0
   10.5000    5.2990    0.0000 C   0  0  0  0  0  0  0  0  0  0  0  0
   12.0000    5.2990    0.0000 F   0  0  0  0  0  0  0  0  0  0  0  0
   10.5000    3.7990    0.0000 F   0  0  0  0  0  0  0  0  0  0  0  0
   10.5000    6.7990    0.0000 F   0  0  0  0  0  0  0  0  0  0  0  0
  1  2  1  0
  2  3  1  0
  3  4  1  0
  4  5  1  0
  5  6  1  0
  7  8  2  0
  8  9  2  0
  8 10  1  0
  8 11  1  0
 11 12  1  0
 11 13  1  0
 11 14  1  0
 14 15  1  0
 14 16  1  0
 14 17  1  0
 17 18  1  0
 17 19  1  0
 17 20  1  0
 20 21  1  0
 20 22  1  0
 20 23  1  0
 23 24  1  0
 23 25  1  0
 23 26  1  0
 26 27  1  0
 26 28  1  0
 26 29  1  0
 29 30  1  0
 29 31  1  0
 29 32  1  0
 32 33  1  0
 32 34  1  0
 32 35  1  0
  6  1  1  0
M  CHG  2   4   1  10  -1
M  END
$$$$

     RDKit          2D

 35 34  0  0  0  0  0  0  0  0999 V2000
    0.0000    0.0000    0.0000 C   0  0  0  0  0  0  0  0  0  0  0  0
    1.2990    0.7500    0.0000 C   0  0  0  0  0  0  0  0  0  0  0  0
    2.5981   -0.0000    0.0000 N   0  0  0  0  0  0  0  0  0  0  0  0
    3.8971    0.7500    0.0000 C   0  0  0  0  0  0  0  0  0  0  0  0
    5.1962   -0.0000    0.0000 C   0  0  0  0  0  0  0  0  0  0  0  0
    6.4952    0.7500    0.0000 C   0  0  0  0  0  0  0  0  0  0  0  0
    7.7942   -0.0000    0.0000 P   0  0  0  0  0  0  0  0  0  0  0  0
    9.0933   -0.7500    0.0000 O   0  0  0  0  0  0  0  0  0  0  0  0
    8.5442    1.2990    0.0000 O   0  0  0  0  0  0  0  0  0  0  0  0
    7.0442   -1.2990    0.0000 O   0  0  0  0  0  0  0  0  0  0  0  0
    2.5981   -1.5000    0.0000 S   0  0  0  0  0  0  0  0  0  0  0  0
    1.8069   -1.4028    0.0000 O   0  0  0  0  0  0  0  0  0  0  0  0
    4.0981   -1.5000    0.0000 O   0  0  0  0  0  0  0  0  0  0  0  0
    2.5981   -3.0000    0.0000 C   0  0  0  0  0  0  0  0  0  0  0  0
    4.0981   -3.0000    0.0000 F   0  0  0  0  0  0  0  0  0  0  0  0
    2.5981   -4.5000    0.0000 F   0  0  0  0  0  0  0  0  0  0  0  0
    1.0981   -3.0000    0.0000 C   0  0  0  0  0  0  0  0  0  0  0  0
    0.9901   -2.1209    0.0000 F   0  0  0  0  0  0  0  0  0  0  0  0
    1.0981   -4.5000    0.0000 F   0  0  0  0  0  0  0  0  0  0  0  0
   -0.4019   -3.0000    0.0000 C   0  0  0  0  0  0  0  0  0  0  0  0
   -0.4019   -1.5000    0.0000 F   0  0  0  0  0  0  0  0  0  0  0  0
   -0.4019   -4.5000    0.0000 F   0  0  0  0  0  0  0  0  0  0  0  0
   -1.9019   -3.0000    0.0000 C   0  0  0  0  0  0  0  0  0  0  0  0
   -1.9019   -4.5000    0.0000 F   0  0  0  0  0  0  0  0  0  0  0  0
   -1.9019   -1.5000    0.0000 F   0  0  0  0  0  0  0  0  0  0  0  0
   -3.4019   -3.0000    0.0000 C   0  0  0  0  0  0  0  0  0  0  0  0
   -3.4019   -4.5000    0.0000 F   0  0  0  0  0  0  0  0  0  0  0  0
   -3.4019   -1.5000    0.0000 F   0  0  0  0  0  0  0  0  0  0  0  0
   -4.9019   -3.0000    0.0000 C   0  0  0  0  0  0  0  0  0  0  0  0
   -4.9019   -1.5000    0.0000 F   0  0  0  0  0  0  0  0  0  0  0  0
   -4.9019   -4.5000    0.0000 F   0  0  0  0  0  0  0  0  0  0  0  0
   -6.4019   -3.0000    0.0000 C   0  0  0  0  0  0  0  0  0  0  0  0
   -7.9019   -3.0000    0.0000 F   0  0  0  0  0  0  0  0  0  0  0  0
   -6.4019   -4.5000    0.0000 F   0  0  0  0  0  0  0  0  0  0  0  0
   -6.4019   -1.5000    0.0000 F   0  0  0  0  0  0  0  0  0  0  0  0
  1  2  1  0
  2  3  1  0
  3  4  1  0
  4  5  1  0
  5  6  1  0
  6  7  1  0
  7  8  2  0
  7  9  1  0
  7 10  1  0
  3 11  1  0
 11 12  2  0
 11 13  2  0
 11 14  1  0
 14 15  1  0
 14 16  1  0
 14 17  1  0
 17 18  1  0
 17 19  1  0
 17 20  1  0
 20 21  1  0
 20 22  1  0
 20 23  1  0
 23 24  1  0
 23 25  1  0
 23 26  1  0
 26 27  1  0
 26 28  1  0
 26 29  1  0
 29 30  1  0
 29 31  1  0
 29 32  1  0
 32 33  1  0
 32 34  1  0
 32 35  1  0
M  END
$$$$

     RDKit          2D

 39 38  0  0  0  0  0  0  0  0999 V2000
   -0.0000    0.0000    0.0000 C   0  0  0  0  0  0  0  0  0  0  0  0
    1.2990    0.7500    0.0000 C   0  0  0  0  0  0  0  0  0  0  0  0
    2.5981    0.0000    0.0000 O   0  0  0  0  0  0  0  0  0  0  0  0
    3.8971    0.7500    0.0000 P   0  0  0  0  0  0  0  0  0  0  0  0
    4.6471   -0.5490    0.0000 O   0  0  0  0  0  0  0  0  0  0  0  0
    3.1471    2.0490    0.0000 C   0  0  0  0  0  0  0  0  0  0  0  0
    3.8971    3.3481    0.0000 C   0  0  0  0  0  0  0  0  0  0  0  0
    3.1471    4.6471    0.0000 C   0  0  0  0  0  0  0  0  0  0  0  0
    3.8971    5.9462    0.0000 N   0  0  0  0  0  0  0  0  0  0  0  0
    3.1471    7.2452    0.0000 C   0  0  0  0  0  0  0  0  0  0  0  0
    3.8971    8.5442    0.0000 C   0  0  0  0  0  0  0  0  0  0  0  0
    5.3971    5.9462    0.0000 S   0  0  0  0  0  0  0  0  0  0  0  0
    5.3971    4.4462    0.0000 O   0  0  0  0  0  0  0  0  0  0  0  0
    5.2999    6.7374    0.0000 O   0  0  0  0  0  0  0  0  0  0  0  0
    6.8971    5.9462    0.0000 C   0  0  0  0  0  0  0  0  0  0  0  0
    6.8971    4.4462    0.0000 F   0  0  0  0  0  0  0  0  0  0  0  0
    8.3971    5.9462    0.0000 F   0  0  0  0  0  0  0  0  0  0  0  0
    6.8971    7.4462    0.0000 C   0  0  0  0  0  0  0  0  0  0  0  0
    6.0180    7.5541    0.0000 F   0  0  0  0  0  0  0  0  0  0  0  0
    8.3971    7.4462    0.0000 F   0  0  0  0  0  0  0  0  0  0  0  0
    6.8971    8.9462    0.0000 C   0  0  0  0  0  0  0  0  0  0  0  0
    5.3971    8.9462    0.0000 F   0  0  0  0  0  0  0  0  0  0  0  0
    8.3971    8.9462    0.0000 F   0  0  0  0  0  0  0  0  0  0  0  0
    6.8971   10.4462    0.0000 C   0  0  0  0  0  0  0  0  0  0  0  0
    5.3971   10.4462    0.0000 F   0  0  0  0  0  0  0  0  0  0  0  0
    8.3971   10.4462    0.0000 F   0  0  0  0  0  0  0  0  0  0  0  0
    6.8971   11.9462    0.0000 C   0  0  0  0  0  0  0  0  0  0  0  0
    5.3971   11.9462    0.0000 F   0  0  0  0  0  0  0  0  0  0  0  0
    8.3971   11.9462    0.0000 F   0  0  0  0  0  0  0  0  0  0  0  0
    6.8971   13.4462    0.0000 C   0  0  0  0  0  0  0  0  0  0  0  0
    8.3971   13.4462    0.0000 F   0  0  0  0  0  0  0  0  0  0  0  0
    5.3971   13.4462    0.0000 F   0  0  0  0  0  0  0  0  0  0  0  0
    6.8971   14.9462    0.0000 C   0  0  0  0  0  0  0  0  0  0  0  0
    6.8971   16.4462    0.0000 F   0  0  0  0  0  0  0  0  0  0  0  0
    5.3971   14.9462    0.0000 F   0  0  0  0  0  0  0  0  0  0  0  0
    8.3971   14.9462    0.0000 F   0  0  0  0  0  0  0  0  0  0  0  0
    5.1962    1.5000    0.0000 O   0  0  0  0  0  0  0  0  0  0  0  0
    5.1962    3.0000    0.0000 C   0  0  0  0  0  0  0  0  0  0  0  0
    6.4952    3.7500    0.0000 C   0  0  0  0  0  0  0  0  0  0  0  0
  1  2  1  0
  2  3  1  0
  3  4  1  0
  4  5  2  0
  4  6  1  0
  6  7  1  0
  7  8  1  0
  8  9  1  0
  9 10  1  0
 10 11  1  0
  9 12  1  0
 12 13  2  0
 12 14  2  0
 12 15  1  0
 15 16  1  0
 15 17  1  0
 15 18  1  0
 18 19  1  0
 18 20  1  0
 18 21  1  0
 21 22  1  0
 21 23  1  0
 21 24  1  0
 24 25  1  0
 24 26  1  0
 24 27  1  0
 27 28  1  0
 27 29  1  0
 27 30  1  0
 30 31  1  0
 30 32  1  0
 30 33  1  0
 33 34  1  0
 33 35  1  0
 33 36  1  0
  4 37  1  0
 37 38  1  0
 38 39  1  0
M  END
$$$$

     RDKit          2D

 33 32  0  0  0  0  0  0  0  0999 V2000
    2.5981    3.0000    0.0000 F   0  0  0  0  0  0  0  0  0  0  0  0
    2.5981    1.5000    0.0000 C   0  0  0  0  0  0  0  0  0  0  0  0
    3.8971    0.7500    0.0000 F   0  0  0  0  0  0  0  0  0  0  0  0
    1.2990    0.7500    0.0000 C   0  0  0  0  0  0  0  0  0  0  0  0
    2.0490   -0.5490    0.0000 F   0  0  0  0  0  0  0  0  0  0  0  0
    0.5490    2.0490    0.0000 F   0  0  0  0  0  0  0  0  0  0  0  0
    0.0000    0.0000    0.0000 C   0  0  0  0  0  0  0  0  0  0  0  0
   -1.2990    0.7500    0.0000 O   0  0  0  0  0  0  0  0  0  0  0  0
   -2.5981    0.0000    0.0000 C   0  0  0  0  0  0  0  0  0  0  0  0
   -3.8971   -0.7500    0.0000 O   0  0  0  0  0  0  0  0  0  0  0  0
   -3.8971   -2.2500    0.0000 C   0  0  0  0  0  0  0  0  0  0  0  0
   -5.1962   -3.0000    0.0000 C   0  0  0  0  0  0  0  0  0  0  0  0
   -4.4462   -4.2990    0.0000 F   0  0  0  0  0  0  0  0  0  0  0  0
   -5.9462   -1.7010    0.0000 F   0  0  0  0  0  0  0  0  0  0  0  0
   -6.4952   -3.7500    0.0000 C   0  0  0  0  0  0  0  0  0  0  0  0
   -7.7942   -3.0000    0.0000 F   0  0  0  0  0  0  0  0  0  0  0  0
   -6.4952   -5.2500    0.0000 F   0  0  0  0  0  0  0  0  0  0  0  0
   -3.3481    1.2990    0.0000 O   0  0  0  0  0  0  0  0  0  0  0  0
   -4.8481    1.2990    0.0000 C   0  0  0  0  0  0  0  0  0  0  0  0
   -5.5981    2.5981    0.0000 C   0  0  0  0  0  0  0  0  0  0  0  0
   -6.8971    1.8481    0.0000 F   0  0  0  0  0  0  0  0  0  0  0  0
   -4.2990    3.3481    0.0000 F   0  0  0  0  0  0  0  0  0  0  0  0
   -6.3481    3.8971    0.0000 C   0  0  0  0  0  0  0  0  0  0  0  0
   -5.5981    5.1962    0.0000 F   0  0  0  0  0  0  0  0  0  0  0  0
   -7.8481    3.8971    0.0000 F   0  0  0  0  0  0  0  0  0  0  0  0
   -1.8481   -1.2990    0.0000 O   0  0  0  0  0  0  0  0  0  0  0  0
   -2.5981   -2.5981    0.0000 C   0  0  0  0  0  0  0  0  0  0  0  0
   -1.8481   -3.8971    0.0000 C   0  0  0  0  0  0  0  0  0  0  0  0
   -3.1471   -4.6471    0.0000 F   0  0  0  0  0  0  0  0  0  0  0  0
   -0.5490   -3.1471    0.0000 F   0  0  0  0  0  0  0  0  0  0  0  0
   -1.0981   -5.1962    0.0000 C   0  0  0  0  0  0  0  0  0  0  0  0
    0.4019   -5.1962    0.0000 F   0  0  0  0  0  0  0  0  0  0  0  0
   -1.8481   -6.4952    0.0000 F   0  0  0  0  0  0  0  0  0  0  0  0
  1  2  1  0
  2  3  1  0
  2  4  1  0
  4  5  1  0
  4  6  1  0
  4  7  1  0
  7  8  1  0
  8  9  1  0
  9 10  1  0
 10 11  1  0
 11 12  1  0
 12 13  1  0
 12 14  1  0
 12 15  1  0
 15 16  1  0
 15 17  1  0
  9 18  1  0
 18 19  1  0
 19 20  1  0
 20 21  1  0
 20 22  1  0
 20 23  1  0
 23 24  1  0
 23 25  1  0
  9 26  1  0
 26 27  1  0
 27 28  1  0
 28 29  1  0
 28 30  1  0
 28 31  1  0
 31 32  1  0
 31 33  1  0
M  END
$$$$

     RDKit          2D

 33 31  0  0  0  0  0  0  0  0999 V2000
    0.0000    0.0000    0.0000 C   0  0  0  0  0  0  0  0  0  0  0  0
    1.2990    0.7500    0.0000 C   0  0  0  0  0  0  0  0  0  0  0  0
    1.2990    2.2500    0.0000 O   0  0  0  0  0  0  0  0  0  0  0  0
    2.5981   -0.0000    0.0000 O   0  0  0  0  0  0  0  0  0  0  0  0
    7.7942    3.2500    0.0000 C   0  0  0  0  0  0  0  0  0  0  0  0
    6.4952    4.0000    0.0000 N   0  0  0  0  0  0  0  0  0  0  0  0
    5.1962    3.2500    0.0000 C   0  0  0  0  0  0  0  0  0  0  0  0
    6.4952    5.5000    0.0000 C   0  0  0  0  0  0  0  0  0  0  0  0
    5.1962    6.2500    0.0000 C   0  0  0  0  0  0  0  0  0  0  0  0
    5.1962    7.7500    0.0000 C   0  0  0  0  0  0  0  0  0  0  0  0
    3.8971    8.5000    0.0000 N   0  0  0  0  0  0  0  0  0  0  0  0
    3.8971   10.0000    0.0000 S   0  0  0  0  0  0  0  0  0  0  0  0
    5.3971   10.0000    0.0000 O   0  0  0  0  0  0  0  0  0  0  0  0
    3.1059    9.9028    0.0000 O   0  0  0  0  0  0  0  0  0  0  0  0
    3.8971   11.5000    0.0000 C   0  0  0  0  0  0  0  0  0  0  0  0
    5.3971   11.5000    0.0000 F   0  0  0  0  0  0  0  0  0  0  0  0
    3.8971   13.0000    0.0000 F   0  0  0  0  0  0  0  0  0  0  0  0
    2.3971   11.5000    0.0000 C   0  0  0  0  0  0  0  0  0  0  0  0
    2.2891   10.6209    0.0000 F   0  0  0  0  0  0  0  0  0  0  0  0
    2.3971   13.0000    0.0000 F   0  0  0  0  0  0  0  0  0  0  0  0
    0.8971   11.5000    0.0000 C   0  0  0  0  0  0  0  0  0  0  0  0
    0.8971   10.0000    0.0000 F   0  0  0  0  0  0  0  0  0  0  0  0
    0.8971   13.0000    0.0000 F   0  0  0  0  0  0  0  0  0  0  0  0
   -0.6029   11.5000    0.0000 C   0  0  0  0  0  0  0  0  0  0  0  0
   -0.6029   10.0000    0.0000 F   0  0  0  0  0  0  0  0  0  0  0  0
   -0.6029   13.0000    0.0000 F   0  0  0  0  0  0  0  0  0  0  0  0
   -2.1029   11.5000    0.0000 C   0  0  0  0  0  0  0  0  0  0  0  0
   -2.1029   13.0000    0.0000 F   0  0  0  0  0  0  0  0  0  0  0  0
   -2.1029   10.0000    0.0000 F   0  0  0  0  0  0  0  0  0  0  0  0
   -3.6029   11.5000    0.0000 C   0  0  0  0  0  0  0  0  0  0  0  0
   -5.1029   11.5000    0.0000 F   0  0  0  0  0  0  0  0  0  0  0  0
   -3.6029   10.0000    0.0000 F   0  0  0  0  0  0  0  0  0  0  0  0
   -3.6029   13.0000    0.0000 F   0  0  0  0  0  0  0  0  0  0  0  0
  1  2  1  0
  2  3  2  0
  2  4  1  0
  5  6  1  0
  6  7  1  0
  6  8  1  0
  8  9  1  0
  9 10  1  0
 10 11  1  0
 11 12  1  0
 12 13  2  0
 12 14  2  0
 12 15  1  0
 15 16  1  0
 15 17  1  0
 15 18  1  0
 18 19  1  0
 18 20  1  0
 18 21  1  0
 21 22  1  0
 21 23  1  0
 21 24  1  0
 24 25  1  0
 24 26  1  0
 24 27  1  0
 27 28  1  0
 27 29  1  0
 27 30  1  0
 30 31  1  0
 30 32  1  0
 30 33  1  0
M  END
$$$$

     RDKit          2D

 16 15  0  0  0  0  0  0  0  0999 V2000
    0.0000    0.0000    0.0000 C   0  0  0  0  0  0  0  0  0  0  0  0
    1.2990    0.7500    0.0000 C   0  0  0  0  0  0  0  0  0  0  0  0
    2.5981   -0.0000    0.0000 O   0  0  0  0  0  0  0  0  0  0  0  0
    3.8971    0.7500    0.0000 C   0  0  0  0  0  0  0  0  0  0  0  0
    3.1471    2.0490    0.0000 F   0  0  0  0  0  0  0  0  0  0  0  0
    4.6471   -0.5490    0.0000 F   0  0  0  0  0  0  0  0  0  0  0  0
    5.1962    1.5000    0.0000 C   0  0  0  0  0  0  0  0  0  0  0  0
    5.9462    0.2010    0.0000 F   0  0  0  0  0  0  0  0  0  0  0  0
    4.4462    2.7990    0.0000 F   0  0  0  0  0  0  0  0  0  0  0  0
    6.4952    2.2500    0.0000 C   0  0  0  0  0  0  0  0  0  0  0  0
    7.2452    0.9510    0.0000 F   0  0  0  0  0  0  0  0  0  0  0  0
    5.7452    3.5490    0.0000 F   0  0  0  0  0  0  0  0  0  0  0  0
    7.7942    3.0000    0.0000 C   0  0  0  0  0  0  0  0  0  0  0  0
    9.0933    3.7500    0.0000 F   0  0  0  0  0  0  0  0  0  0  0  0
    7.0442    4.2990    0.0000 F   0  0  0  0  0  0  0  0  0  0  0  0
    8.5442    1.7010    0.0000 F   0  0  0  0  0  0  0  0  0  0  0  0
  1  2  1  0
  2  3  1  0
  3  4  1  0
  4  5  1  0
  4  6  1  0
  4  7  1  0
  7  8  1  0
  7  9  1  0
  7 10  1  0
 10 11  1  0
 10 12  1  0
 10 13  1  0
 13 14  1  0
 13 15  1  0
 13 16  1  0
M  END
$$$$

     RDKit          2D

 13 12  0  0  0  0  0  0  0  0999 V2000
    0.0000    0.0000    0.0000 C   0  0  0  0  0  0  0  0  0  0  0  0
    1.2990    0.7500    0.0000 O   0  0  0  0  0  0  0  0  0  0  0  0
    2.5981   -0.0000    0.0000 C   0  0  0  0  0  0  0  0  0  0  0  0
    2.5981   -1.5000    0.0000 O   0  0  0  0  0  0  0  0  0  0  0  0
    3.8971    0.7500    0.0000 C   0  0  0  0  0  0  0  0  0  0  0  0
    5.1962   -0.0000    0.0000 C   0  0  0  0  0  0  0  0  0  0  0  0
    6.4952   -0.7500    0.0000 F   0  0  0  0  0  0  0  0  0  0  0  0
    5.9462    1.2990    0.0000 F   0  0  0  0  0  0  0  0  0  0  0  0
    4.4462   -1.2990    0.0000 F   0  0  0  0  0  0  0  0  0  0  0  0
    3.8971    2.2500    0.0000 C   0  0  0  0  0  0  0  0  0  0  0  0
    3.8971    3.7500    0.0000 F   0  0  0  0  0  0  0  0  0  0  0  0
    5.3971    2.2500    0.0000 F   0  0  0  0  0  0  0  0  0  0  0  0
    2.3971    2.2500    0.0000 F   0  0  0  0  0  0  0  0  0  0  0  0
  1  2  1  0
  2  3  1  0
  3  4  2  0
  3  5  1  0
  5  6  1  0
  6  7  1  0
  6  8  1  0
  6  9  1  0
  5 10  1  0
 10 11  1  0
 10 12  1  0
 10 13  1  0
M  END
$$$$

     RDKit          2D

 14 13  0  0  0  0  0  0  0  0999 V2000
   -0.0000   -1.5000    0.0000 N   0  0  0  0  0  0  0  0  0  0  0  0
    0.0000    0.0000    0.0000 C   0  0  0  0  0  0  0  0  0  0  0  0
    0.0000    1.5000    0.0000 C   0  0  0  0  0  0  0  0  0  0  0  0
   -1.2990    2.2500    0.0000 C   0  0  0  0  0  0  0  0  0  0  0  0
   -2.5981    3.0000    0.0000 N   0  0  0  0  0  0  0  0  0  0  0  0
    1.2990    2.2500    0.0000 C   0  0  0  0  0  0  0  0  0  0  0  0
    1.2990    3.7500    0.0000 C   0  0  0  0  0  0  0  0  0  0  0  0
    1.2990    5.2500    0.0000 F   0  0  0  0  0  0  0  0  0  0  0  0
    2.7990    3.7500    0.0000 F   0  0  0  0  0  0  0  0  0  0  0  0
   -0.2010    3.7500    0.0000 F   0  0  0  0  0  0  0  0  0  0  0  0
    2.5981    1.5000    0.0000 C   0  0  0  0  0  0  0  0  0  0  0  0
    3.8971    0.7500    0.0000 F   0  0  0  0  0  0  0  0  0  0  0  0
    3.3481    2.7990    0.0000 F   0  0  0  0  0  0  0  0  0  0  0  0
    1.8481    0.2010    0.0000 F   0  0  0  0  0  0  0  0  0  0  0  0
  1  2  3  0
  2  3  1  0
  3  4  1  0
  4  5  3  0
  3  6  2  0
  6  7  1  0
  7  8  1  0
  7  9  1  0
  7 10  1  0
  6 11  1  0
 11 12  1  0
 11 13  1  0
 11 14  1  0
M  END
$$$$

     RDKit          2D

 12 11  0  0  0  0  0  0  0  0999 V2000
   -1.2990    0.7500    0.0000 F   0  0  0  0  0  0  0  0  0  0  0  0
    0.0000    0.0000    0.0000 C   0  0  0  0  0  0  0  0  0  0  0  0
   -0.0000   -1.5000    0.0000 F   0  0  0  0  0  0  0  0  0  0  0  0
    1.2990    0.7500    0.0000 C   0  0  0  0  0  0  0  0  0  0  0  0
    2.0490   -0.5490    0.0000 F   0  0  0  0  0  0  0  0  0  0  0  0
    0.5490    2.0490    0.0000 F   0  0  0  0  0  0  0  0  0  0  0  0
    2.5981    1.5000    0.0000 C   0  0  0  0  0  0  0  0  0  0  0  0
    3.3481    0.2010    0.0000 F   0  0  0  0  0  0  0  0  0  0  0  0
    1.8481    2.7990    0.0000 F   0  0  0  0  0  0  0  0  0  0  0  0
    3.8971    2.2500    0.0000 C   0  0  0  0  0  0  0  0  0  0  0  0
    5.1962    1.5000    0.0000 F   0  0  0  0  0  0  0  0  0  0  0  0
    3.8971    3.7500    0.0000 F   0  0  0  0  0  0  0  0  0  0  0  0
  1  2  1  0
  2  3  1  0
  2  4  1  0
  4  5  1  0
  4  6  1  0
  4  7  1  0
  7  8  1  0
  7  9  1  0
  7 10  1  0
 10 11  1  0
 10 12  1  0
M  END
$$$$

     RDKit          2D

  8  7  0  0  0  0  0  0  0  0999 V2000
    0.0000    0.0000    0.0000 C   0  0  0  0  0  0  0  0  0  0  0  0
    1.2990    0.7500    0.0000 C   0  0  0  0  0  0  0  0  0  0  0  0
    2.0490   -0.5490    0.0000 F   0  0  0  0  0  0  0  0  0  0  0  0
    0.5490    2.0490    0.0000 F   0  0  0  0  0  0  0  0  0  0  0  0
    2.5981    1.5000    0.0000 C   0  0  0  0  0  0  0  0  0  0  0  0
    3.8971    2.2500    0.0000 F   0  0  0  0  0  0  0  0  0  0  0  0
    1.8481    2.7990    0.0000 F   0  0  0  0  0  0  0  0  0  0  0  0
    3.3481    0.2010    0.0000 Cl  0  0  0  0  0  0  0  0  0  0  0  0
  1  2  1  0
  2  3  1  0
  2  4  1  0
  2  5  1  0
  5  6  1  0
  5  7  1  0
  5  8  1  0
M  END
$$$$

     RDKit          2D

 10  9  0  0  0  0  0  0  0  0999 V2000
   -1.2990    0.7500    0.0000 F   0  0  0  0  0  0  0  0  0  0  0  0
    0.0000    0.0000    0.0000 C   0  0  0  0  0  0  0  0  0  0  0  0
   -0.0000   -1.5000    0.0000 F   0  0  0  0  0  0  0  0  0  0  0  0
    1.2990    0.7500    0.0000 C   0  0  0  0  0  0  0  0  0  0  0  0
    2.0490   -0.5490    0.0000 F   0  0  0  0  0  0  0  0  0  0  0  0
    0.5490    2.0490    0.0000 F   0  0  0  0  0  0  0  0  0  0  0  0
    2.5981    1.5000    0.0000 C   0  0  0  0  0  0  0  0  0  0  0  0
    3.8971    2.2500    0.0000 F   0  0  0  0  0  0  0  0  0  0  0  0
    1.8481    2.7990    0.0000 F   0  0  0  0  0  0  0  0  0  0  0  0
    3.3481    0.2010    0.0000 Cl  0  0  0  0  0  0  0  0  0  0  0  0
  1  2  1  0
  2  3  1  0
  2  4  1  0
  4  5  1  0
  4  6  1  0
  4  7  1  0
  7  8  1  0
  7  9  1  0
  7 10  1  0
M  END
$$$$

     RDKit          2D

 12 11  0  0  0  0  0  0  0  0999 V2000
   -3.8971    0.7500    0.0000 F   0  0  0  0  0  0  0  0  0  0  0  0
   -2.5981    0.0000    0.0000 C   0  0  0  0  0  0  0  0  0  0  0  0
   -2.5981   -1.5000    0.0000 F   0  0  0  0  0  0  0  0  0  0  0  0
   -1.2990    0.7500    0.0000 O   0  0  0  0  0  0  0  0  0  0  0  0
    0.0000    0.0000    0.0000 C   0  0  0  0  0  0  0  0  0  0  0  0
    1.2990    0.7500    0.0000 C   0  0  0  0  0  0  0  0  0  0  0  0
    2.0490   -0.5490    0.0000 F   0  0  0  0  0  0  0  0  0  0  0  0
    0.5490    2.0490    0.0000 F   0  0  0  0  0  0  0  0  0  0  0  0
    2.5981    1.5000    0.0000 C   0  0  0  0  0  0  0  0  0  0  0  0
    3.8971    2.2500    0.0000 F   0  0  0  0  0  0  0  0  0  0  0  0
    1.8481    2.7990    0.0000 F   0  0  0  0  0  0  0  0  0  0  0  0
    3.3481    0.2010    0.0000 F   0  0  0  0  0  0  0  0  0  0  0  0
  1  2  1  0
  2  3  1  0
  2  4  1  0
  4  5  1  0
  5  6  1  0
  6  7  1  0
  6  8  1  0
  6  9  1  0
  9 10  1  0
  9 11  1  0
  9 12  1  0
M  END
$$$$

     RDKit          2D

  9  8  0  0  0  0  0  0  0  0999 V2000
   -2.2500   -1.2990    0.0000 O   0  0  0  0  0  1  0  0  0  0  0  0
   -1.5000    0.0000    0.0000 O   0  0  0  0  0  0  0  0  0  0  0  0
    0.0000    0.0000    0.0000 C   0  0  0  0  0  0  0  0  0  0  0  0
    0.0000    1.5000    0.0000 F   0  0  0  0  0  0  0  0  0  0  0  0
   -0.0000   -1.5000    0.0000 F   0  0  0  0  0  0  0  0  0  0  0  0
    1.5000    0.0000    0.0000 C   0  0  0  0  0  0  0  0  0  0  0  0
    3.0000    0.0000    0.0000 F   0  0  0  0  0  0  0  0  0  0  0  0
    1.5000   -1.5000    0.0000 F   0  0  0  0  0  0  0  0  0  0  0  0
    1.5000    1.5000    0.0000 F   0  0  0  0  0  0  0  0  0  0  0  0
  1  2  1  0
  2  3  1  0
  3  4  1  0
  3  5  1  0
  3  6  1  0
  6  7  1  0
  6  8  1  0
  6  9  1  0
M  RAD  1   1   2
M  END
$$$$

     RDKit          2D

 16 15  0  0  0  0  0  0  0  0999 V2000
   -0.0000   -1.5000    0.0000 O   0  0  0  0  0  0  0  0  0  0  0  0
    0.0000    0.0000    0.0000 C   0  0  0  0  0  0  0  0  0  0  0  0
   -1.2990    0.7500    0.0000 C   0  0  0  0  0  0  0  0  0  0  0  0
   -2.5981    1.5000    0.0000 F   0  0  0  0  0  0  0  0  0  0  0  0
   -2.0490   -0.5490    0.0000 F   0  0  0  0  0  0  0  0  0  0  0  0
   -0.5490    2.0490    0.0000 F   0  0  0  0  0  0  0  0  0  0  0  0
    1.2990    0.7500    0.0000 C   0  0  0  0  0  0  0  0  0  0  0  0
    2.0490   -0.5490    0.0000 F   0  0  0  0  0  0  0  0  0  0  0  0
    0.5490    2.0490    0.0000 F   0  0  0  0  0  0  0  0  0  0  0  0
    2.5981    1.5000    0.0000 O   0  0  0  0  0  0  0  0  0  0  0  0
    2.5981    3.0000    0.0000 C   0  0  0  0  0  0  0  0  0  0  0  0
    1.2990    3.7500    0.0000 F   0  0  0  0  0  0  0  0  0  0  0  0
    3.8971    3.7500    0.0000 C   0  0  0  0  0  0  0  0  0  0  0  0
    5.1962    4.5000    0.0000 F   0  0  0  0  0  0  0  0  0  0  0  0
    3.1471    5.0490    0.0000 F   0  0  0  0  0  0  0  0  0  0  0  0
    4.6471    2.4510    0.0000 F   0  0  0  0  0  0  0  0  0  0  0  0
  1  2  2  0
  2  3  1  0
  3  4  1  0
  3  5  1  0
  3  6  1  0
  2  7  1  0
  7  8  1  0
  7  9  1  0
  7 10  1  0
 10 11  1  0
 11 12  1  0
 11 13  1  0
 13 14  1  0
 13 15  1  0
 13 16  1  0
M  END
$$$$

     RDKit          2D

 26 26  0  0  0  0  0  0  0  0999 V2000
    5.2500   -1.2990    0.0000 C   0  0  0  0  0  0  0  0  0  0  0  0
    3.7500   -1.2990    0.0000 O   0  0  0  0  0  0  0  0  0  0  0  0
    3.0000    0.0000    0.0000 C   0  0  0  0  0  0  0  0  0  0  0  0
    3.7500    1.2990    0.0000 O   0  0  0  0  0  0  0  0  0  0  0  0
    1.5000    0.0000    0.0000 C   0  0  0  0  0  0  0  0  0  0  0  0
    0.7500   -1.2990    0.0000 C   0  0  0  0  0  0  0  0  0  0  0  0
   -0.7500   -1.2990    0.0000 C   0  0  0  0  0  0  0  0  0  0  0  0
   -1.5000    0.0000    0.0000 C   0  0  0  0  0  0  0  0  0  0  0  0
   -3.0000    0.0000    0.0000 C   0  0  0  0  0  0  0  0  0  0  0  0
   -3.0000    1.5000    0.0000 F   0  0  0  0  0  0  0  0  0  0  0  0
   -3.0000   -1.5000    0.0000 F   0  0  0  0  0  0  0  0  0  0  0  0
   -4.5000    0.0000    0.0000 C   0  0  0  0  0  0  0  0  0  0  0  0
   -4.5000   -1.5000    0.0000 F   0  0  0  0  0  0  0  0  0  0  0  0
   -4.5000    1.5000    0.0000 F   0  0  0  0  0  0  0  0  0  0  0  0
   -6.0000    0.0000    0.0000 C   0  0  0  0  0  0  0  0  0  0  0  0
   -6.0000    1.5000    0.0000 F   0  0  0  0  0  0  0  0  0  0  0  0
   -6.0000   -1.5000    0.0000 F   0  0  0  0  0  0  0  0  0  0  0  0
   -7.5000    0.0000    0.0000 C   0  0  0  0  0  0  0  0  0  0  0  0
   -7.5000   -1.5000    0.0000 F   0  0  0  0  0  0  0  0  0  0  0  0
   -7.5000    1.5000    0.0000 F   0  0  0  0  0  0  0  0  0  0  0  0
   -9.0000    0.0000    0.0000 C   0  0  0  0  0  0  0  0  0  0  0  0
  -10.5000    0.0000    0.0000 F   0  0  0  0  0  0  0  0  0  0  0  0
   -9.0000    1.5000    0.0000 F   0  0  0  0  0  0  0  0  0  0  0  0
   -9.0000   -1.5000    0.0000 F   0  0  0  0  0  0  0  0  0  0  0  0
   -0.7500    1.2990    0.0000 C   0  0  0  0  0  0  0  0  0  0  0  0
    0.7500    1.2990    0.0000 C   0  0  0  0  0  0  0  0  0  0  0  0
  1  2  1  0
  2  3  1  0
  3  4  2  0
  3  5  1  0
  5  6  2  0
  6  7  1  0
  7  8  2  0
  8  9  1  0
  9 10  1  0
  9 11  1  0
  9 12  1  0
 12 13  1  0
 12 14  1  0
 12 15  1  0
 15 16  1  0
 15 17  1  0
 15 18  1  0
 18 19  1  0
 18 20  1  0
 18 21  1  0
 21 22  1  0
 21 23  1  0
 21 24  1  0
  8 25  1  0
 25 26  2  0
 26  5  1  0
M  END
$$$$

     RDKit          2D

 39 40  0  0  0  0  0  0  0  0999 V2000
    4.5000    0.0000    0.0000 N   0  0  0  0  0  0  0  0  0  0  0  0
    3.0000    0.0000    0.0000 C   0  0  0  0  0  0  0  0  0  0  0  0
    1.5000    0.0000    0.0000 C   0  0  0  0  0  0  0  0  0  0  0  0
    0.7500   -1.2990    0.0000 C   0  0  0  0  0  0  0  0  0  0  0  0
   -0.7500   -1.2990    0.0000 C   0  0  0  0  0  0  0  0  0  0  0  0
   -1.5000    0.0000    0.0000 C   0  0  0  0  0  0  0  0  0  0  0  0
   -3.0000    0.0000    0.0000 O   0  0  0  0  0  0  0  0  0  0  0  0
   -3.7500    1.2990    0.0000 C   0  0  0  0  0  0  0  0  0  0  0  0
   -3.0000    2.5981    0.0000 O   0  0  0  0  0  0  0  0  0  0  0  0
   -5.2500    1.2990    0.0000 C   0  0  0  0  0  0  0  0  0  0  0  0
   -6.0000    2.5981    0.0000 C   0  0  0  0  0  0  0  0  0  0  0  0
   -7.5000    2.5981    0.0000 C   0  0  0  0  0  0  0  0  0  0  0  0
   -8.2500    1.2990    0.0000 C   0  0  0  0  0  0  0  0  0  0  0  0
   -9.7500    1.2990    0.0000 C   0  0  0  0  0  0  0  0  0  0  0  0
   -9.7500    2.7990    0.0000 F   0  0  0  0  0  0  0  0  0  0  0  0
   -9.7500   -0.2010    0.0000 F   0  0  0  0  0  0  0  0  0  0  0  0
  -11.2500    1.2990    0.0000 C   0  0  0  0  0  0  0  0  0  0  0  0
  -11.2500   -0.2010    0.0000 F   0  0  0  0  0  0  0  0  0  0  0  0
  -11.2500    2.7990    0.0000 F   0  0  0  0  0  0  0  0  0  0  0  0
  -12.7500    1.2990    0.0000 C   0  0  0  0  0  0  0  0  0  0  0  0
  -12.7500    2.7990    0.0000 F   0  0  0  0  0  0  0  0  0  0  0  0
  -12.7500   -0.2010    0.0000 F   0  0  0  0  0  0  0  0  0  0  0  0
  -14.2500    1.2990    0.0000 C   0  0  0  0  0  0  0  0  0  0  0  0
  -14.2500   -0.2010    0.0000 F   0  0  0  0  0  0  0  0  0  0  0  0
  -14.2500    2.7990    0.0000 F   0  0  0  0  0  0  0  0  0  0  0  0
  -15.7500    1.2990    0.0000 C   0  0  0  0  0  0  0  0  0  0  0  0
  -15.7500    2.7990    0.0000 F   0  0  0  0  0  0  0  0  0  0  0  0
  -15.7500   -0.2010    0.0000 F   0  0  0  0  0  0  0  0  0  0  0  0
  -17.2500    1.2990    0.0000 C   0  0  0  0  0  0  0  0  0  0  0  0
  -17.2500   -0.2010    0.0000 F   0  0  0  0  0  0  0  0  0  0  0  0
  -17.2500    2.7990    0.0000 F   0  0  0  0  0  0  0  0  0  0  0  0
  -18.7500    1.2990    0.0000 C   0  0  0  0  0  0  0  0  0  0  0  0
  -20.2500    1.2990    0.0000 F   0  0  0  0  0  0  0  0  0  0  0  0
  -18.7500    2.7990    0.0000 F   0  0  0  0  0  0  0  0  0  0  0  0
  -18.7500   -0.2010    0.0000 F   0  0  0  0  0  0  0  0  0  0  0  0
   -7.5000    0.0000    0.0000 C   0  0  0  0  0  0  0  0  0  0  0  0
   -6.0000    0.0000    0.0000 C   0  0  0  0  0  0  0  0  0  0  0  0
   -0.7500    1.2990    0.0000 C   0  0  0  0  0  0  0  0  0  0  0  0
    0.7500    1.2990    0.0000 C   0  0  0  0  0  0  0  0  0  0  0  0
  1  2  3  0
  2  3  1  0
  3  4  2  0
  4  5  1  0
  5  6  2  0
  6  7  1  0
  7  8  1  0
  8  9  2  0
  8 10  1  0
 10 11  2  0
 11 12  1  0
 12 13  2  0
 13 14  1  0
 14 15  1  0
 14 16  1  0
 14 17  1  0
 17 18  1  0
 17 19  1  0
 17 20  1  0
 20 21  1  0
 20 22  1  0
 20 23  1  0
 23 24  1  0
 23 25  1  0
 23 26  1  0
 26 27  1  0
 26 28  1  0
 26 29  1  0
 29 30  1  0
 29 31  1  0
 29 32  1  0
 32 33  1  0
 32 34  1  0
 32 35  1  0
 13 36  1  0
 36 37  2  0
  6 38  1  0
 38 39  2  0
 39  3  1  0
 37 10  1  0
M  END
$$$$

     RDKit          2D

 14 13  0  0  0  0  0  0  0  0999 V2000
    0.0000    0.0000    0.0000 C   0  0  0  0  0  0  0  0  0  0  0  0
    1.2990    0.7500    0.0000 C   0  0  0  0  0  0  0  0  0  0  0  0
    2.5981   -0.0000    0.0000 C   0  0  0  0  0  0  0  0  0  0  0  0
    3.8971    0.7500    0.0000 C   0  0  0  0  0  0  0  0  0  0  0  0
    5.1962   -0.0000    0.0000 C   0  0  0  0  0  0  0  0  0  0  0  0
    6.4952    0.7500    0.0000 C   0  0  0  0  0  0  0  0  0  0  0  0
    6.4952    2.2500    0.0000 O   0  0  0  0  0  0  0  0  0  0  0  0
    7.7942   -0.0000    0.0000 C   0  0  0  0  0  0  0  0  0  0  0  0
    8.5442    1.2990    0.0000 F   0  0  0  0  0  0  0  0  0  0  0  0
    7.0442   -1.2990    0.0000 F   0  0  0  0  0  0  0  0  0  0  0  0
    9.0933   -0.7500    0.0000 C   0  0  0  0  0  0  0  0  0  0  0  0
   10.3923   -1.5000    0.0000 F   0  0  0  0  0  0  0  0  0  0  0  0
    8.3433   -2.0490    0.0000 F   0  0  0  0  0  0  0  0  0  0  0  0
    9.8433    0.5490    0.0000 F   0  0  0  0  0  0  0  0  0  0  0  0
  1  2  1  0
  2  3  1  0
  3  4  1  0
  4  5  2  3
  5  6  1  0
  6  7  2  0
  6  8  1  0
  8  9  1  0
  8 10  1  0
  8 11  1  0
 11 12  1  0
 11 13  1  0
 11 14  1  0
M  END
$$$$

     RDKit          2D

 14 13  0  0  0  0  0  0  0  0999 V2000
    0.0000    0.0000    0.0000 C   0  0  0  0  0  0  0  0  0  0  0  0
    1.2990    0.7500    0.0000 C   0  0  0  0  0  0  0  0  0  0  0  0
    2.5981   -0.0000    0.0000 C   0  0  0  0  0  0  0  0  0  0  0  0
    3.8971    0.7500    0.0000 C   0  0  0  0  0  0  0  0  0  0  0  0
    5.1962   -0.0000    0.0000 C   0  0  0  0  0  0  0  0  0  0  0  0
    6.4952    0.7500    0.0000 C   0  0  0  0  0  0  0  0  0  0  0  0
    6.4952    2.2500    0.0000 O   0  0  0  0  0  0  0  0  0  0  0  0
    7.7942   -0.0000    0.0000 C   0  0  0  0  0  0  0  0  0  0  0  0
    8.5442    1.2990    0.0000 F   0  0  0  0  0  0  0  0  0  0  0  0
    7.0442   -1.2990    0.0000 F   0  0  0  0  0  0  0  0  0  0  0  0
    9.0933   -0.7500    0.0000 C   0  0  0  0  0  0  0  0  0  0  0  0
   10.3923   -1.5000    0.0000 F   0  0  0  0  0  0  0  0  0  0  0  0
    8.3433   -2.0490    0.0000 F   0  0  0  0  0  0  0  0  0  0  0  0
    9.8433    0.5490    0.0000 F   0  0  0  0  0  0  0  0  0  0  0  0
  1  2  1  0
  2  3  2  3
  3  4  1  0
  4  5  2  3
  5  6  1  0
  6  7  2  0
  6  8  1  0
  8  9  1  0
  8 10  1  0
  8 11  1  0
 11 12  1  0
 11 13  1  0
 11 14  1  0
M  END
$$$$

     RDKit          2D

 12 11  0  0  0  0  0  0  0  0999 V2000
   -1.2990    0.7500    0.0000 O   0  0  0  0  0  0  0  0  0  0  0  0
    0.0000    0.0000    0.0000 C   0  0  0  0  0  0  0  0  0  0  0  0
   -0.0000   -1.5000    0.0000 F   0  0  0  0  0  0  0  0  0  0  0  0
    1.2990    0.7500    0.0000 C   0  0  0  0  0  0  0  0  0  0  0  0
    2.5981   -0.0000    0.0000 C   0  0  0  0  0  0  0  0  0  0  0  0
    3.8971   -0.7500    0.0000 F   0  0  0  0  0  0  0  0  0  0  0  0
    3.3481    1.2990    0.0000 F   0  0  0  0  0  0  0  0  0  0  0  0
    1.8481   -1.2990    0.0000 F   0  0  0  0  0  0  0  0  0  0  0  0
    1.2990    2.2500    0.0000 C   0  0  0  0  0  0  0  0  0  0  0  0
    1.2990    3.7500    0.0000 F   0  0  0  0  0  0  0  0  0  0  0  0
    2.7990    2.2500    0.0000 F   0  0  0  0  0  0  0  0  0  0  0  0
   -0.2010    2.2500    0.0000 F   0  0  0  0  0  0  0  0  0  0  0  0
  1  2  2  0
  2  3  1  0
  2  4  1  0
  4  5  1  0
  5  6  1  0
  5  7  1  0
  5  8  1  0
  4  9  1  0
  9 10  1  0
  9 11  1  0
  9 12  1  0
M  END
$$$$

     RDKit          2D

 11 10  0  0  0  0  0  0  0  0999 V2000
   -1.5000    0.0000    0.0000 O   0  0  0  0  0  0  0  0  0  0  0  0
    0.0000    0.0000    0.0000 C   0  0  0  0  0  0  0  0  0  0  0  0
    0.0000    1.5000    0.0000 F   0  0  0  0  0  0  0  0  0  0  0  0
   -0.0000   -1.5000    0.0000 F   0  0  0  0  0  0  0  0  0  0  0  0
    1.5000    0.0000    0.0000 C   0  0  0  0  0  0  0  0  0  0  0  0
    1.5000   -1.5000    0.0000 F   0  0  0  0  0  0  0  0  0  0  0  0
    1.5000    1.5000    0.0000 F   0  0  0  0  0  0  0  0  0  0  0  0
    3.0000    0.0000    0.0000 C   0  0  0  0  0  0  0  0  0  0  0  0
    4.5000    0.0000    0.0000 F   0  0  0  0  0  0  0  0  0  0  0  0
    3.0000    1.5000    0.0000 F   0  0  0  0  0  0  0  0  0  0  0  0
    3.0000   -1.5000    0.0000 Cl  0  0  0  0  0  0  0  0  0  0  0  0
  1  2  1  0
  2  3  1  0
  2  4  1  0
  2  5  1  0
  5  6  1  0
  5  7  1  0
  5  8  1  0
  8  9  1  0
  8 10  1  0
  8 11  1  0
M  END
$$$$

     RDKit          2D

 11 10  0  0  0  0  0  0  0  0999 V2000
   -0.0000   -1.5000    0.0000 F   0  0  0  0  0  0  0  0  0  0  0  0
    0.0000    0.0000    0.0000 C   0  0  0  0  0  0  0  0  0  0  0  0
   -1.2990    0.7500    0.0000 N   0  0  0  0  0  0  0  0  0  0  0  0
   -2.5981    0.0000    0.0000 Br  0  0  0  0  0  0  0  0  0  0  0  0
    1.2990    0.7500    0.0000 C   0  0  0  0  0  0  0  0  0  0  0  0
    2.0490   -0.5490    0.0000 F   0  0  0  0  0  0  0  0  0  0  0  0
    0.5490    2.0490    0.0000 F   0  0  0  0  0  0  0  0  0  0  0  0
    2.5981    1.5000    0.0000 C   0  0  0  0  0  0  0  0  0  0  0  0
    3.8971    2.2500    0.0000 F   0  0  0  0  0  0  0  0  0  0  0  0
    1.8481    2.7990    0.0000 F   0  0  0  0  0  0  0  0  0  0  0  0
    3.3481    0.2010    0.0000 F   0  0  0  0  0  0  0  0  0  0  0  0
  1  2  1  0
  2  3  2  3
  3  4  1  0
  2  5  1  0
  5  6  1  0
  5  7  1  0
  5  8  1  0
  8  9  1  0
  8 10  1  0
  8 11  1  0
M  END
$$$$

     RDKit          2D

 16 15  0  0  0  0  0  0  0  0999 V2000
   -1.5000    3.7990    0.0000 O   0  0  0  0  0  0  0  0  0  0  0  0
   -0.0000    3.7990    0.0000 S   0  0  0  0  0  0  0  0  0  0  0  0
    1.5000    3.7990    0.0000 O   0  0  0  0  0  0  0  0  0  0  0  0
   -0.0000    2.2990    0.0000 O   0  0  0  0  0  0  0  0  0  0  0  0
    0.0000    5.2990    0.0000 C   0  0  0  0  0  0  0  0  0  0  0  0
   -1.2990    6.0490    0.0000 F   0  0  0  0  0  0  0  0  0  0  0  0
    1.2990    6.0490    0.0000 C   0  0  0  0  0  0  0  0  0  0  0  0
    2.5981    6.7990    0.0000 F   0  0  0  0  0  0  0  0  0  0  0  0
    2.0490    4.7500    0.0000 F   0  0  0  0  0  0  0  0  0  0  0  0
    0.5490    7.3481    0.0000 F   0  0  0  0  0  0  0  0  0  0  0  0
    1.5000    0.0000    0.0000 C   0  0  0  0  0  0  0  0  0  0  0  0
    0.7500   -1.2990    0.0000 C   0  0  0  0  0  0  0  0  0  0  0  0
   -0.7500   -1.2990    0.0000 C   0  0  0  0  0  0  0  0  0  0  0  0
   -1.5000    0.0000    0.0000 N   0  0  0  0  0  0  0  0  0  0  0  0
   -0.7500    1.2990    0.0000 C   0  0  0  0  0  0  0  0  0  0  0  0
    0.7500    1.2990    0.0000 C   0  0  0  0  0  0  0  0  0  0  0  0
  1  2  2  0
  2  3  2  0
  2  4  1  0
  2  5  1  0
  5  6  1  0
  5  7  1  0
  7  8  1  0
  7  9  1  0
  7 10  1  0
 11 12  2  0
 12 13  1  0
 13 14  2  0
 14 15  1  0
 15 16  2  0
 16 11  1  0
M  END
$$$$

     RDKit          2D

 12 11  0  0  0  0  0  0  0  0999 V2000
    0.0000    0.0000    0.0000 C   0  0  0  0  0  0  0  0  0  0  0  0
    1.2990    0.7500    0.0000 C   0  0  0  0  0  0  0  0  0  0  0  0
    1.2990    2.2500    0.0000 O   0  0  0  0  0  0  0  0  0  0  0  0
    2.5981   -0.0000    0.0000 C   0  0  0  0  0  0  0  0  0  0  0  0
    3.8971    0.7500    0.0000 C   0  0  0  0  0  0  0  0  0  0  0  0
    3.8971    2.2500    0.0000 S   0  0  0  0  0  0  0  0  0  0  0  0
    5.1962   -0.0000    0.0000 C   0  0  0  0  0  0  0  0  0  0  0  0
    4.4462   -1.2990    0.0000 F   0  0  0  0  0  0  0  0  0  0  0  0
    5.9462    1.2990    0.0000 F   0  0  0  0  0  0  0  0  0  0  0  0
    6.4952   -0.7500    0.0000 C   0  0  0  0  0  0  0  0  0  0  0  0
    6.4952   -2.2500    0.0000 F   0  0  0  0  0  0  0  0  0  0  0  0
    7.7942   -0.0000    0.0000 F   0  0  0  0  0  0  0  0  0  0  0  0
  1  2  1  0
  2  3  2  0
  2  4  1  0
  4  5  2  3
  5  6  1  0
  5  7  1  0
  7  8  1  0
  7  9  1  0
  7 10  1  0
 10 11  1  0
 10 12  1  0
M  END
$$$$

     RDKit          2D

 17 16  0  0  0  0  0  0  0  0999 V2000
    5.1962    0.0000    0.0000 C   0  0  0  0  0  0  0  0  0  0  0  0
    3.8971   -0.7500    0.0000 C   0  0  0  0  0  0  0  0  0  0  0  0
    4.0800   -2.2388    0.0000 Br  0  0  0  0  0  0  0  0  0  0  0  0
    2.5981   -0.0000    0.0000 C   0  0  0  0  0  0  0  0  0  0  0  0
    1.2990    0.7500    0.0000 O   0  0  0  0  0  0  0  0  0  0  0  0
    3.3481    1.2990    0.0000 C   0  0  0  0  0  0  0  0  0  0  0  0
    2.5981    2.5981    0.0000 Br  0  0  0  0  0  0  0  0  0  0  0  0
    1.8481   -1.2990    0.0000 C   0  0  0  0  0  0  0  0  0  0  0  0
    3.0460   -2.2018    0.0000 F   0  0  0  0  0  0  0  0  0  0  0  0
    0.5490   -0.5490    0.0000 F   0  0  0  0  0  0  0  0  0  0  0  0
    1.0981   -2.5981    0.0000 C   0  0  0  0  0  0  0  0  0  0  0  0
   -0.2010   -1.8481    0.0000 F   0  0  0  0  0  0  0  0  0  0  0  0
    2.3971   -3.3481    0.0000 F   0  0  0  0  0  0  0  0  0  0  0  0
    0.3481   -3.8971    0.0000 C   0  0  0  0  0  0  0  0  0  0  0  0
   -0.4019   -5.1962    0.0000 F   0  0  0  0  0  0  0  0  0  0  0  0
    1.6471   -4.6471    0.0000 F   0  0  0  0  0  0  0  0  0  0  0  0
   -0.9510   -3.1471    0.0000 F   0  0  0  0  0  0  0  0  0  0  0  0
  1  2  1  0
  2  3  1  0
  2  4  1  0
  4  5  1  0
  4  6  1  0
  6  7  1  0
  4  8  1  0
  8  9  1  0
  8 10  1  0
  8 11  1  0
 11 12  1  0
 11 13  1  0
 11 14  1  0
 14 15  1  0
 14 16  1  0
 14 17  1  0
M  END
$$$$

     RDKit          2D

 19 18  0  0  0  0  0  0  0  0999 V2000
   -0.1828   -1.4888    0.0000 O   0  0  0  0  0  0  0  0  0  0  0  0
    0.0000    0.0000    0.0000 C   0  0  0  0  0  0  0  0  0  0  0  0
   -1.2990    0.7500    0.0000 C   0  0  0  0  0  0  0  0  0  0  0  0
   -2.0490   -0.5490    0.0000 F   0  0  0  0  0  0  0  0  0  0  0  0
   -0.5490    2.0490    0.0000 F   0  0  0  0  0  0  0  0  0  0  0  0
   -2.5981    1.5000    0.0000 C   0  0  0  0  0  0  0  0  0  0  0  0
   -3.8971    2.2500    0.0000 F   0  0  0  0  0  0  0  0  0  0  0  0
   -1.8481    2.7990    0.0000 F   0  0  0  0  0  0  0  0  0  0  0  0
   -3.3481    0.2010    0.0000 I   0  0  0  0  0  0  0  0  0  0  0  0
    1.2990    0.7500    0.0000 C   0  0  0  0  0  0  0  0  0  0  0  0
    0.5490    2.0490    0.0000 F   0  0  0  0  0  0  0  0  0  0  0  0
    2.5981    1.5000    0.0000 C   0  0  0  0  0  0  0  0  0  0  0  0
    3.8971    2.2500    0.0000 F   0  0  0  0  0  0  0  0  0  0  0  0
    1.8481    2.7990    0.0000 F   0  0  0  0  0  0  0  0  0  0  0  0
    3.1311    0.7926    0.0000 F   0  0  0  0  0  0  0  0  0  0  0  0
    2.0490   -0.5490    0.0000 C   0  0  0  0  0  0  0  0  0  0  0  0
    2.7990   -1.8481    0.0000 F   0  0  0  0  0  0  0  0  0  0  0  0
    2.8644   -0.2030    0.0000 F   0  0  0  0  0  0  0  0  0  0  0  0
    0.8511   -1.4518    0.0000 F   0  0  0  0  0  0  0  0  0  0  0  0
  1  2  2  0
  2  3  1  0
  3  4  1  0
  3  5  1  0
  3  6  1  0
  6  7  1  0
  6  8  1  0
  6  9  1  0
  2 10  1  0
 10 11  1  0
 10 12  1  0
 12 13  1  0
 12 14  1  0
 12 15  1  0
 10 16  1  0
 16 17  1  0
 16 18  1  0
 16 19  1  0
M  END
$$$$

     RDKit          2D

 10 11  0  0  0  0  0  0  0  0999 V2000
    1.8302    1.1491    0.0000 F   0  0  0  0  0  0  0  0  0  0  0  0
    0.8660    0.0000    0.0000 C   0  0  0  0  0  0  0  0  0  0  0  0
    1.8302   -1.1491    0.0000 F   0  0  0  0  0  0  0  0  0  0  0  0
   -0.4330    0.7500    0.0000 C   0  0  0  0  0  0  0  0  0  0  0  0
   -0.4330    2.2500    0.0000 F   0  0  0  0  0  0  0  0  0  0  0  0
   -1.7321    0.0000    0.0000 C   0  0  0  0  0  0  0  0  0  0  0  0
   -2.6962    1.1491    0.0000 F   0  0  0  0  0  0  0  0  0  0  0  0
   -2.6962   -1.1491    0.0000 F   0  0  0  0  0  0  0  0  0  0  0  0
   -0.4330   -0.7500    0.0000 C   0  0  0  0  0  0  0  0  0  0  0  0
   -0.4330   -2.2500    0.0000 F   0  0  0  0  0  0  0  0  0  0  0  0
  1  2  1  0
  2  3  1  0
  2  4  1  0
  4  5  1  0
  4  6  1  0
  6  7  1  0
  6  8  1  0
  6  9  1  0
  9 10  1  0
  9  2  1  0
  9  4  1  0
M  END
$$$$

     RDKit          2D

 18 17  0  0  0  0  0  0  0  0999 V2000
    0.0000    0.0000    0.0000 C   0  0  0  0  0  0  0  0  0  0  0  0
    1.2990    0.7500    0.0000 C   0  0  0  0  0  0  0  0  0  0  0  0
    2.5981   -0.0000    0.0000 C   0  0  0  0  0  0  0  0  0  0  0  0
    1.2990    2.2500    0.0000 C   0  0  0  0  0  0  0  0  0  0  0  0
    2.5981    3.0000    0.0000 C   0  0  0  0  0  0  0  0  0  0  0  0
    2.5981    4.5000    0.0000 C   0  0  0  0  0  0  0  0  0  0  0  0
    4.0981    4.5000    0.0000 F   0  0  0  0  0  0  0  0  0  0  0  0
    1.0981    4.5000    0.0000 F   0  0  0  0  0  0  0  0  0  0  0  0
    2.5981    6.0000    0.0000 C   0  0  0  0  0  0  0  0  0  0  0  0
    1.0981    6.0000    0.0000 F   0  0  0  0  0  0  0  0  0  0  0  0
    4.0981    6.0000    0.0000 F   0  0  0  0  0  0  0  0  0  0  0  0
    2.5981    7.5000    0.0000 C   0  0  0  0  0  0  0  0  0  0  0  0
    4.0981    7.5000    0.0000 F   0  0  0  0  0  0  0  0  0  0  0  0
    1.0981    7.5000    0.0000 F   0  0  0  0  0  0  0  0  0  0  0  0
    2.5981    9.0000    0.0000 C   0  0  0  0  0  0  0  0  0  0  0  0
    2.5981   10.5000    0.0000 F   0  0  0  0  0  0  0  0  0  0  0  0
    1.0981    9.0000    0.0000 F   0  0  0  0  0  0  0  0  0  0  0  0
    4.0981    9.0000    0.0000 F   0  0  0  0  0  0  0  0  0  0  0  0
  1  2  1  0
  2  3  1  0
  2  4  2  0
  4  5  1  0
  5  6  1  0
  6  7  1  0
  6  8  1  0
  6  9  1  0
  9 10  1  0
  9 11  1  0
  9 12  1  0
 12 13  1  0
 12 14  1  0
 12 15  1  0
 15 16  1  0
 15 17  1  0
 15 18  1  0
M  END
$$$$

     RDKit          2D

 28 27  0  0  0  0  0  0  0  0999 V2000
   -2.0490   -0.5490    0.0000 O   0  0  0  0  0  0  0  0  0  0  0  0
   -1.2990    0.7500    0.0000 S   0  0  0  0  0  0  0  0  0  0  0  0
   -0.5490    2.0490    0.0000 O   0  0  0  0  0  0  0  0  0  0  0  0
    0.0000    0.0000    0.0000 C   0  0  0  0  0  0  0  0  0  0  0  0
    1.2990    0.7500    0.0000 C   0  0  0  0  0  0  0  0  0  0  0  0
    2.5981   -0.0000    0.0000 C   0  0  0  0  0  0  0  0  0  0  0  0
    3.8971    0.7500    0.0000 O   0  0  0  0  0  0  0  0  0  0  0  0
   -2.5981    1.5000    0.0000 C   0  0  0  0  0  0  0  0  0  0  0  0
   -2.5981    3.0000    0.0000 C   0  0  0  0  0  0  0  0  0  0  0  0
   -3.8971    3.7500    0.0000 C   0  0  0  0  0  0  0  0  0  0  0  0
   -3.1471    5.0490    0.0000 F   0  0  0  0  0  0  0  0  0  0  0  0
   -4.6471    2.4510    0.0000 F   0  0  0  0  0  0  0  0  0  0  0  0
   -5.1962    4.5000    0.0000 C   0  0  0  0  0  0  0  0  0  0  0  0
   -5.9462    3.2010    0.0000 F   0  0  0  0  0  0  0  0  0  0  0  0
   -4.4462    5.7990    0.0000 F   0  0  0  0  0  0  0  0  0  0  0  0
   -6.4952    5.2500    0.0000 C   0  0  0  0  0  0  0  0  0  0  0  0
   -5.7452    6.5490    0.0000 F   0  0  0  0  0  0  0  0  0  0  0  0
   -7.2452    3.9510    0.0000 F   0  0  0  0  0  0  0  0  0  0  0  0
   -7.7942    6.0000    0.0000 C   0  0  0  0  0  0  0  0  0  0  0  0
   -8.5442    4.7010    0.0000 F   0  0  0  0  0  0  0  0  0  0  0  0
   -7.0442    7.2990    0.0000 F   0  0  0  0  0  0  0  0  0  0  0  0
   -9.0933    6.7500    0.0000 C   0  0  0  0  0  0  0  0  0  0  0  0
   -8.3433    8.0490    0.0000 F   0  0  0  0  0  0  0  0  0  0  0  0
   -9.8433    5.4510    0.0000 F   0  0  0  0  0  0  0  0  0  0  0  0
  -10.3923    7.5000    0.0000 C   0  0  0  0  0  0  0  0  0  0  0  0
  -11.6913    8.2500    0.0000 F   0  0  0  0  0  0  0  0  0  0  0  0
  -11.1423    6.2010    0.0000 F   0  0  0  0  0  0  0  0  0  0  0  0
   -9.6423    8.7990    0.0000 F   0  0  0  0  0  0  0  0  0  0  0  0
  1  2  2  0
  2  3  2  0
  2  4  1  0
  4  5  1  0
  5  6  1  0
  6  7  1  0
  2  8  1  0
  8  9  1  0
  9 10  1  0
 10 11  1  0
 10 12  1  0
 10 13  1  0
 13 14  1  0
 13 15  1  0
 13 16  1  0
 16 17  1  0
 16 18  1  0
 16 19  1  0
 19 20  1  0
 19 21  1  0
 19 22  1  0
 22 23  1  0
 22 24  1  0
 22 25  1  0
 25 26  1  0
 25 27  1  0
 25 28  1  0
M  END
$$$$

     RDKit          2D

 19 18  0  0  0  0  0  0  0  0999 V2000
    0.0000    0.0000    0.0000 C   0  0  0  0  0  0  0  0  0  0  0  0
    1.2990    0.7500    0.0000 C   0  0  0  0  0  0  0  0  0  0  0  0
    2.5981   -0.0000    0.0000 C   0  0  0  0  0  0  0  0  0  0  0  0
    3.8971    0.7500    0.0000 C   0  0  0  0  0  0  0  0  0  0  0  0
    5.1962   -0.0000    0.0000 C   0  0  0  0  0  0  0  0  0  0  0  0
    6.4952    0.7500    0.0000 C   0  0  0  0  0  0  0  0  0  0  0  0
    7.7942   -0.0000    0.0000 C   0  0  0  0  0  0  0  0  0  0  0  0
    7.7942   -1.5000    0.0000 I   0  0  0  0  0  0  0  0  0  0  0  0
    9.0933    0.7500    0.0000 C   0  0  0  0  0  0  0  0  0  0  0  0
   10.3923   -0.0000    0.0000 C   0  0  0  0  0  0  0  0  0  0  0  0
   11.1423    1.2990    0.0000 F   0  0  0  0  0  0  0  0  0  0  0  0
    9.6423   -1.2990    0.0000 F   0  0  0  0  0  0  0  0  0  0  0  0
   11.6913   -0.7500    0.0000 C   0  0  0  0  0  0  0  0  0  0  0  0
   10.9413   -2.0490    0.0000 F   0  0  0  0  0  0  0  0  0  0  0  0
   12.4413    0.5490    0.0000 F   0  0  0  0  0  0  0  0  0  0  0  0
   12.9904   -1.5000    0.0000 C   0  0  0  0  0  0  0  0  0  0  0  0
   14.2894   -2.2500    0.0000 F   0  0  0  0  0  0  0  0  0  0  0  0
   13.7404   -0.2010    0.0000 F   0  0  0  0  0  0  0  0  0  0  0  0
   12.2404   -2.7990    0.0000 F   0  0  0  0  0  0  0  0  0  0  0  0
  1  2  1  0
  2  3  1  0
  3  4  1  0
  4  5  1  0
  5  6  1  0
  6  7  1  0
  7  8  1  0
  7  9  2  3
  9 10  1  0
 10 11  1  0
 10 12  1  0
 10 13  1  0
 13 14  1  0
 13 15  1  0
 13 16  1  0
 16 17  1  0
 16 18  1  0
 16 19  1  0
M  END
$$$$

     RDKit          2D

 19 18  0  0  0  0  0  0  0  0999 V2000
    1.2990    2.2500    0.0000 F   0  0  0  0  0  0  0  0  0  0  0  0
    1.2990    0.7500    0.0000 C   0  0  0  0  0  0  0  0  0  0  0  0
    0.0000    0.0000    0.0000 C   0  0  0  0  0  0  0  0  0  0  0  0
   -1.2990    0.7500    0.0000 I   0  0  0  0  0  0  0  0  0  0  0  0
    2.5981   -0.0000    0.0000 C   0  0  0  0  0  0  0  0  0  0  0  0
    3.3481    1.2990    0.0000 F   0  0  0  0  0  0  0  0  0  0  0  0
    1.8481   -1.2990    0.0000 F   0  0  0  0  0  0  0  0  0  0  0  0
    3.8971   -0.7500    0.0000 C   0  0  0  0  0  0  0  0  0  0  0  0
    3.1471   -2.0490    0.0000 F   0  0  0  0  0  0  0  0  0  0  0  0
    4.6471    0.5490    0.0000 F   0  0  0  0  0  0  0  0  0  0  0  0
    5.1962   -1.5000    0.0000 C   0  0  0  0  0  0  0  0  0  0  0  0
    4.4462   -2.7990    0.0000 F   0  0  0  0  0  0  0  0  0  0  0  0
    5.9462   -0.2010    0.0000 F   0  0  0  0  0  0  0  0  0  0  0  0
    6.4952   -2.2500    0.0000 C   0  0  0  0  0  0  0  0  0  0  0  0
    7.2452   -0.9510    0.0000 F   0  0  0  0  0  0  0  0  0  0  0  0
    5.7452   -3.5490    0.0000 F   0  0  0  0  0  0  0  0  0  0  0  0
    7.7942   -3.0000    0.0000 C   0  0  0  0  0  0  0  0  0  0  0  0
    9.0933   -2.2500    0.0000 F   0  0  0  0  0  0  0  0  0  0  0  0
    7.7942   -4.5000    0.0000 F   0  0  0  0  0  0  0  0  0  0  0  0
  1  2  1  0
  2  3  2  3
  3  4  1  0
  2  5  1  0
  5  6  1  0
  5  7  1  0
  5  8  1  0
  8  9  1  0
  8 10  1  0
  8 11  1  0
 11 12  1  0
 11 13  1  0
 11 14  1  0
 14 15  1  0
 14 16  1  0
 14 17  1  0
 17 18  1  0
 17 19  1  0
M  END
$$$$

     RDKit          2D

 20 20  0  0  0  0  0  0  0  0999 V2000
    3.7500   -1.2990    0.0000 C   0  0  0  0  0  0  0  0  0  0  0  0
    3.0000    0.0000    0.0000 C   0  0  0  0  0  0  0  0  0  0  0  0
    1.5000    0.0000    0.0000 C   0  0  0  0  0  0  0  0  0  0  0  0
    0.7500   -1.2990    0.0000 C   0  0  0  0  0  0  0  0  0  0  0  0
   -0.7500   -1.2990    0.0000 C   0  0  0  0  0  0  0  0  0  0  0  0
   -1.5000    0.0000    0.0000 C   0  0  0  0  0  0  0  0  0  0  0  0
   -3.0000    0.0000    0.0000 O   0  0  0  0  0  0  0  0  0  0  0  0
   -3.7500    1.2990    0.0000 C   0  0  0  0  0  0  0  0  0  0  0  0
   -5.2500    1.2990    0.0000 C   0  0  0  0  0  0  0  0  0  0  0  0
   -5.2500    2.7990    0.0000 F   0  0  0  0  0  0  0  0  0  0  0  0
   -5.2500   -0.2010    0.0000 F   0  0  0  0  0  0  0  0  0  0  0  0
   -6.7500    1.2990    0.0000 C   0  0  0  0  0  0  0  0  0  0  0  0
   -6.7500   -0.2010    0.0000 F   0  0  0  0  0  0  0  0  0  0  0  0
   -6.7500    2.7990    0.0000 F   0  0  0  0  0  0  0  0  0  0  0  0
   -8.2500    1.2990    0.0000 C   0  0  0  0  0  0  0  0  0  0  0  0
   -9.7500    1.2990    0.0000 F   0  0  0  0  0  0  0  0  0  0  0  0
   -8.2500    2.7990    0.0000 F   0  0  0  0  0  0  0  0  0  0  0  0
   -8.2500   -0.2010    0.0000 F   0  0  0  0  0  0  0  0  0  0  0  0
   -0.7500    1.2990    0.0000 C   0  0  0  0  0  0  0  0  0  0  0  0
    0.7500    1.2990    0.0000 C   0  0  0  0  0  0  0  0  0  0  0  0
  1  2  2  0
  2  3  1  0
  3  4  2  0
  4  5  1  0
  5  6  2  0
  6  7  1  0
  7  8  1  0
  8  9  1  0
  9 10  1  0
  9 11  1  0
  9 12  1  0
 12 13  1  0
 12 14  1  0
 12 15  1  0
 15 16  1  0
 15 17  1  0
 15 18  1  0
  6 19  1  0
 19 20  2  0
 20  3  1  0
M  END
$$$$

     RDKit          2D

 13 12  0  0  0  0  0  0  0  0999 V2000
    0.0000    0.0000    0.0000 C   0  0  0  0  0  0  0  0  0  0  0  0
    1.2990    0.7500    0.0000 O   0  0  0  0  0  0  0  0  0  0  0  0
    2.5981   -0.0000    0.0000 C   0  0  0  0  0  0  0  0  0  0  0  0
    2.5981   -1.5000    0.0000 O   0  0  0  0  0  0  0  0  0  0  0  0
    3.8971    0.7500    0.0000 C   0  0  0  0  0  0  0  0  0  0  0  0
    5.1962   -0.0000    0.0000 C   0  0  0  0  0  0  0  0  0  0  0  0
    5.1962   -1.5000    0.0000 O   0  0  0  0  0  0  0  0  0  0  0  0
    6.4952    0.7500    0.0000 C   0  0  0  0  0  0  0  0  0  0  0  0
    7.2452   -0.5490    0.0000 F   0  0  0  0  0  0  0  0  0  0  0  0
    5.7452    2.0490    0.0000 F   0  0  0  0  0  0  0  0  0  0  0  0
    7.7942    1.5000    0.0000 C   0  0  0  0  0  0  0  0  0  0  0  0
    7.7942    3.0000    0.0000 F   0  0  0  0  0  0  0  0  0  0  0  0
    9.0933    0.7500    0.0000 F   0  0  0  0  0  0  0  0  0  0  0  0
  1  2  1  0
  2  3  1  0
  3  4  2  0
  3  5  1  0
  5  6  2  3
  6  7  1  0
  6  8  1  0
  8  9  1  0
  8 10  1  0
  8 11  1  0
 11 12  1  0
 11 13  1  0
M  END
$$$$

     RDKit          2D

 37 36  0  0  0  0  0  0  0  0999 V2000
   -1.2990    2.2500    0.0000 O   0  0  0  0  0  0  0  0  0  0  0  0
   -1.2990    0.7500    0.0000 C   0  0  0  0  0  0  0  0  0  0  0  0
   -2.5981    0.0000    0.0000 O   0  0  0  0  0  0  0  0  0  0  0  0
    0.0000    0.0000    0.0000 C   0  0  0  0  0  0  0  0  0  0  0  0
    1.2990    0.7500    0.0000 C   0  0  0  0  0  0  0  0  0  0  0  0
    2.5981   -0.0000    0.0000 C   0  0  0  0  0  0  0  0  0  0  0  0
    3.8971    0.7500    0.0000 C   0  0  0  0  0  0  0  0  0  0  0  0
    5.1962   -0.0000    0.0000 C   0  0  0  0  0  0  0  0  0  0  0  0
    6.4952    0.7500    0.0000 O   0  0  0  0  0  0  0  0  0  0  0  0
    7.7942   -0.0000    0.0000 C   0  0  0  0  0  0  0  0  0  0  0  0
    7.0442   -1.2990    0.0000 F   0  0  0  0  0  0  0  0  0  0  0  0
    8.5442    1.2990    0.0000 F   0  0  0  0  0  0  0  0  0  0  0  0
    9.0933   -0.7500    0.0000 C   0  0  0  0  0  0  0  0  0  0  0  0
    9.8433    0.5490    0.0000 F   0  0  0  0  0  0  0  0  0  0  0  0
    8.3433   -2.0490    0.0000 F   0  0  0  0  0  0  0  0  0  0  0  0
   10.3923   -1.5000    0.0000 C   0  0  0  0  0  0  0  0  0  0  0  0
    9.6423   -2.7990    0.0000 F   0  0  0  0  0  0  0  0  0  0  0  0
   11.1423   -0.2010    0.0000 F   0  0  0  0  0  0  0  0  0  0  0  0
   11.6913   -2.2500    0.0000 C   0  0  0  0  0  0  0  0  0  0  0  0
   12.4413   -0.9510    0.0000 F   0  0  0  0  0  0  0  0  0  0  0  0
   10.9413   -3.5490    0.0000 F   0  0  0  0  0  0  0  0  0  0  0  0
   12.9904   -3.0000    0.0000 C   0  0  0  0  0  0  0  0  0  0  0  0
   13.7404   -1.7010    0.0000 F   0  0  0  0  0  0  0  0  0  0  0  0
   12.2404   -4.2990    0.0000 F   0  0  0  0  0  0  0  0  0  0  0  0
   14.2894   -3.7500    0.0000 C   0  0  0  0  0  0  0  0  0  0  0  0
   13.5394   -5.0490    0.0000 F   0  0  0  0  0  0  0  0  0  0  0  0
   15.0394   -2.4510    0.0000 F   0  0  0  0  0  0  0  0  0  0  0  0
   15.5885   -4.5000    0.0000 C   0  0  0  0  0  0  0  0  0  0  0  0
   16.3385   -3.2010    0.0000 F   0  0  0  0  0  0  0  0  0  0  0  0
   14.8385   -5.7990    0.0000 F   0  0  0  0  0  0  0  0  0  0  0  0
   16.8875   -5.2500    0.0000 C   0  0  0  0  0  0  0  0  0  0  0  0
   16.1375   -6.5490    0.0000 F   0  0  0  0  0  0  0  0  0  0  0  0
   17.6375   -3.9510    0.0000 F   0  0  0  0  0  0  0  0  0  0  0  0
   18.1865   -6.0000    0.0000 C   0  0  0  0  0  0  0  0  0  0  0  0
   19.4856   -6.7500    0.0000 F   0  0  0  0  0  0  0  0  0  0  0  0
   18.9365   -4.7010    0.0000 F   0  0  0  0  0  0  0  0  0  0  0  0
   17.4365   -7.2990    0.0000 F   0  0  0  0  0  0  0  0  0  0  0  0
  1  2  2  0
  2  3  1  0
  2  4  1  0
  4  5  1  0
  5  6  1  0
  6  7  1  0
  7  8  1  0
  8  9  1  0
  9 10  1  0
 10 11  1  0
 10 12  1  0
 10 13  1  0
 13 14  1  0
 13 15  1  0
 13 16  1  0
 16 17  1  0
 16 18  1  0
 16 19  1  0
 19 20  1  0
 19 21  1  0
 19 22  1  0
 22 23  1  0
 22 24  1  0
 22 25  1  0
 25 26  1  0
 25 27  1  0
 25 28  1  0
 28 29  1  0
 28 30  1  0
 28 31  1  0
 31 32  1  0
 31 33  1  0
 31 34  1  0
 34 35  1  0
 34 36  1  0
 34 37  1  0
M  END
$$$$

     RDKit          2D

 29 28  0  0  0  0  0  0  0  0999 V2000
    0.0000    0.0000    0.0000 C   0  0  0  0  0  0  0  0  0  0  0  0
    1.2990    0.7500    0.0000 C   0  0  0  0  0  0  0  0  0  0  0  0
    2.5981   -0.0000    0.0000 C   0  0  0  0  0  0  0  0  0  0  0  0
    3.8971    0.7500    0.0000 C   0  0  0  0  0  0  0  0  0  0  0  0
    5.1962   -0.0000    0.0000 C   0  0  0  0  0  0  0  0  0  0  0  0
    6.4952    0.7500    0.0000 C   0  0  0  0  0  0  0  0  0  0  0  0
    7.7942   -0.0000    0.0000 C   0  0  0  0  0  0  0  0  0  0  0  0
    9.0933    0.7500    0.0000 C   0  0  0  0  0  0  0  0  0  0  0  0
   10.3923   -0.0000    0.0000 C   0  0  0  0  0  0  0  0  0  0  0  0
   11.6913    0.7500    0.0000 O   0  0  0  0  0  0  0  0  0  0  0  0
   12.9904   -0.0000    0.0000 C   0  0  0  0  0  0  0  0  0  0  0  0
   12.2404   -1.2990    0.0000 F   0  0  0  0  0  0  0  0  0  0  0  0
   13.7404    1.2990    0.0000 F   0  0  0  0  0  0  0  0  0  0  0  0
   14.2894   -0.7500    0.0000 C   0  0  0  0  0  0  0  0  0  0  0  0
   15.0394    0.5490    0.0000 F   0  0  0  0  0  0  0  0  0  0  0  0
   13.5394   -2.0490    0.0000 F   0  0  0  0  0  0  0  0  0  0  0  0
   15.5885   -1.5000    0.0000 C   0  0  0  0  0  0  0  0  0  0  0  0
   14.8385   -2.7990    0.0000 F   0  0  0  0  0  0  0  0  0  0  0  0
   16.3385   -0.2010    0.0000 F   0  0  0  0  0  0  0  0  0  0  0  0
   16.8875   -2.2500    0.0000 C   0  0  0  0  0  0  0  0  0  0  0  0
   16.1375   -3.5490    0.0000 F   0  0  0  0  0  0  0  0  0  0  0  0
   17.6375   -0.9510    0.0000 F   0  0  0  0  0  0  0  0  0  0  0  0
   18.1865   -3.0000    0.0000 C   0  0  0  0  0  0  0  0  0  0  0  0
   18.9365   -1.7010    0.0000 F   0  0  0  0  0  0  0  0  0  0  0  0
   17.4365   -4.2990    0.0000 F   0  0  0  0  0  0  0  0  0  0  0  0
   19.4856   -3.7500    0.0000 C   0  0  0  0  0  0  0  0  0  0  0  0
   20.7846   -4.5000    0.0000 F   0  0  0  0  0  0  0  0  0  0  0  0
   18.7356   -5.0490    0.0000 F   0  0  0  0  0  0  0  0  0  0  0  0
   20.2356   -2.4510    0.0000 F   0  0  0  0  0  0  0  0  0  0  0  0
  1  2  1  0
  2  3  1  0
  3  4  1  0
  4  5  1  0
  5  6  1  0
  6  7  1  0
  7  8  1  0
  8  9  1  0
  9 10  1  0
 10 11  1  0
 11 12  1  0
 11 13  1  0
 11 14  1  0
 14 15  1  0
 14 16  1  0
 14 17  1  0
 17 18  1  0
 17 19  1  0
 17 20  1  0
 20 21  1  0
 20 22  1  0
 20 23  1  0
 23 24  1  0
 23 25  1  0
 23 26  1  0
 26 27  1  0
 26 28  1  0
 26 29  1  0
M  END
$$$$

     RDKit          2D

 20 19  0  0  0  0  0  0  0  0999 V2000
   -2.5981    1.5000    0.0000 O   0  0  0  0  0  0  0  0  0  0  0  0
   -1.2990    0.7500    0.0000 P   0  0  0  0  0  0  0  0  0  0  0  0
   -2.0490   -0.5490    0.0000 O   0  0  0  0  0  0  0  0  0  0  0  0
   -0.5490    2.0490    0.0000 O   0  0  0  0  0  0  0  0  0  0  0  0
    0.0000    0.0000    0.0000 C   0  0  0  0  0  0  0  0  0  0  0  0
    1.2990    0.7500    0.0000 C   0  0  0  0  0  0  0  0  0  0  0  0
    0.5490    2.0490    0.0000 F   0  0  0  0  0  0  0  0  0  0  0  0
    2.0490   -0.5490    0.0000 F   0  0  0  0  0  0  0  0  0  0  0  0
    2.5981    1.5000    0.0000 C   0  0  0  0  0  0  0  0  0  0  0  0
    3.3481    0.2010    0.0000 F   0  0  0  0  0  0  0  0  0  0  0  0
    1.8481    2.7990    0.0000 F   0  0  0  0  0  0  0  0  0  0  0  0
    3.8971    2.2500    0.0000 C   0  0  0  0  0  0  0  0  0  0  0  0
    3.1471    3.5490    0.0000 F   0  0  0  0  0  0  0  0  0  0  0  0
    4.6471    0.9510    0.0000 F   0  0  0  0  0  0  0  0  0  0  0  0
    5.1962    3.0000    0.0000 C   0  0  0  0  0  0  0  0  0  0  0  0
    5.9462    1.7010    0.0000 F   0  0  0  0  0  0  0  0  0  0  0  0
    4.4462    4.2990    0.0000 F   0  0  0  0  0  0  0  0  0  0  0  0
    6.4952    3.7500    0.0000 C   0  0  0  0  0  0  0  0  0  0  0  0
    7.7942    3.0000    0.0000 F   0  0  0  0  0  0  0  0  0  0  0  0
    6.4952    5.2500    0.0000 F   0  0  0  0  0  0  0  0  0  0  0  0
  1  2  2  0
  2  3  1  0
  2  4  1  0
  2  5  1  0
  5  6  1  0
  6  7  1  0
  6  8  1  0
  6  9  1  0
  9 10  1  0
  9 11  1  0
  9 12  1  0
 12 13  1  0
 12 14  1  0
 12 15  1  0
 15 16  1  0
 15 17  1  0
 15 18  1  0
 18 19  1  0
 18 20  1  0
M  END
$$$$

     RDKit          2D

 15 14  0  0  0  0  0  0  0  0999 V2000
   -0.0000   -1.5000    0.0000 O   0  0  0  0  0  0  0  0  0  0  0  0
    0.0000    0.0000    0.0000 C   0  0  0  0  0  0  0  0  0  0  0  0
   -1.2990    0.7500    0.0000 O   0  0  0  0  0  0  0  0  0  0  0  0
    1.2990    0.7500    0.0000 C   0  0  0  0  0  0  0  0  0  0  0  0
    2.0490   -0.5490    0.0000 F   0  0  0  0  0  0  0  0  0  0  0  0
    0.5490    2.0490    0.0000 F   0  0  0  0  0  0  0  0  0  0  0  0
    2.5981    1.5000    0.0000 C   0  0  0  0  0  0  0  0  0  0  0  0
    1.6953    2.6979    0.0000 F   0  0  0  0  0  0  0  0  0  0  0  0
    3.3481    0.2010    0.0000 F   0  0  0  0  0  0  0  0  0  0  0  0
    3.8971    2.2500    0.0000 C   0  0  0  0  0  0  0  0  0  0  0  0
    5.1962    3.0000    0.0000 F   0  0  0  0  0  0  0  0  0  0  0  0
    4.6471    0.9510    0.0000 F   0  0  0  0  0  0  0  0  0  0  0  0
    3.1471    3.5490    0.0000 S   0  0  0  0  0  0  0  0  0  0  0  0
    1.6583    3.7319    0.0000 O   0  0  0  0  0  0  0  0  0  0  0  0
    3.8971    4.8481    0.0000 O   0  0  0  0  0  0  0  0  0  0  0  0
  1  2  2  0
  2  3  1  0
  2  4  1  0
  4  5  1  0
  4  6  1  0
  4  7  1  0
  7  8  1  0
  7  9  1  0
  7 10  1  0
 10 11  1  0
 10 12  1  0
 10 13  1  0
 13 14  2  0
 13 15  1  0
M  END
$$$$

     RDKit          2D

 49 50  0  0  0  0  0  0  0  0999 V2000
    3.9071    1.7811    0.0000 F   0  0  0  0  0  0  0  0  0  0  0  0
    2.6491    0.9642    0.0000 C   0  0  0  0  0  0  0  0  0  0  0  0
    3.6132   -0.1849    0.0000 F   0  0  0  0  0  0  0  0  0  0  0  0
    2.2149    1.6327    0.0000 F   0  0  0  0  0  0  0  0  0  0  0  0
    1.5000    0.0000    0.0000 C   0  0  0  0  0  0  0  0  0  0  0  0
    2.6491   -0.9642    0.0000 F   0  0  0  0  0  0  0  0  0  0  0  0
    0.7500   -1.2990    0.0000 C   0  0  0  0  0  0  0  0  0  0  0  0
    2.1595   -1.8121    0.0000 F   0  0  0  0  0  0  0  0  0  0  0  0
    0.4895   -2.7762    0.0000 F   0  0  0  0  0  0  0  0  0  0  0  0
   -0.7500   -1.2990    0.0000 C   0  0  0  0  0  0  0  0  0  0  0  0
   -0.4895   -2.7762    0.0000 F   0  0  0  0  0  0  0  0  0  0  0  0
   -2.1595   -1.8121    0.0000 F   0  0  0  0  0  0  0  0  0  0  0  0
   -1.5000    0.0000    0.0000 C   0  0  0  0  0  0  0  0  0  0  0  0
   -2.6491   -0.9642    0.0000 F   0  0  0  0  0  0  0  0  0  0  0  0
   -2.6491    0.9642    0.0000 F   0  0  0  0  0  0  0  0  0  0  0  0
   -0.7500    1.2990    0.0000 C   0  0  0  0  0  0  0  0  0  0  0  0
   -2.1595    1.8121    0.0000 F   0  0  0  0  0  0  0  0  0  0  0  0
   -0.4895    2.7762    0.0000 F   0  0  0  0  0  0  0  0  0  0  0  0
    0.7500    1.2990    0.0000 C   0  0  0  0  0  0  0  0  0  0  0  0
    2.1595    1.8121    0.0000 C   0  0  0  0  0  0  0  0  0  0  0  0
    3.4960    2.4931    0.0000 F   0  0  0  0  0  0  0  0  0  0  0  0
    2.9984    0.5686    0.0000 F   0  0  0  0  0  0  0  0  0  0  0  0
    1.6465    3.2216    0.0000 F   0  0  0  0  0  0  0  0  0  0  0  0
    0.4895    2.7762    0.0000 C   0  0  0  0  0  0  0  0  0  0  0  0
    1.9667    3.0367    0.0000 F   0  0  0  0  0  0  0  0  0  0  0  0
   -1.0084    2.6978    0.0000 F   0  0  0  0  0  0  0  0  0  0  0  0
    0.2291    4.2535    0.0000 C   0  0  0  0  0  0  0  0  0  0  0  0
   -1.1805    3.7404    0.0000 C   0  0  0  0  0  0  0  0  0  0  0  0
   -2.5170    3.0594    0.0000 F   0  0  0  0  0  0  0  0  0  0  0  0
   -1.8615    5.0769    0.0000 F   0  0  0  0  0  0  0  0  0  0  0  0
   -2.1647    4.8724    0.0000 F   0  0  0  0  0  0  0  0  0  0  0  0
    1.7291    4.2535    0.0000 C   0  0  0  0  0  0  0  0  0  0  0  0
    3.1386    3.7404    0.0000 F   0  0  0  0  0  0  0  0  0  0  0  0
    1.2905    2.8190    0.0000 F   0  0  0  0  0  0  0  0  0  0  0  0
    2.4791    5.5525    0.0000 C   0  0  0  0  0  0  0  0  0  0  0  0
    3.6281    6.5167    0.0000 F   0  0  0  0  0  0  0  0  0  0  0  0
    3.6281    4.5883    0.0000 F   0  0  0  0  0  0  0  0  0  0  0  0
    1.7291    6.8515    0.0000 C   0  0  0  0  0  0  0  0  0  0  0  0
    1.4686    8.3287    0.0000 F   0  0  0  0  0  0  0  0  0  0  0  0
    3.1386    7.3646    0.0000 F   0  0  0  0  0  0  0  0  0  0  0  0
    0.2291    6.8515    0.0000 C   0  0  0  0  0  0  0  0  0  0  0  0
   -1.1805    7.3646    0.0000 F   0  0  0  0  0  0  0  0  0  0  0  0
    0.4895    8.3287    0.0000 F   0  0  0  0  0  0  0  0  0  0  0  0
   -0.5209    5.5525    0.0000 C   0  0  0  0  0  0  0  0  0  0  0  0
   -1.6700    6.5167    0.0000 F   0  0  0  0  0  0  0  0  0  0  0  0
   -1.6700    4.5883    0.0000 C   0  0  0  0  0  0  0  0  0  0  0  0
   -2.9280    3.7714    0.0000 F   0  0  0  0  0  0  0  0  0  0  0  0
   -2.6342    5.7374    0.0000 F   0  0  0  0  0  0  0  0  0  0  0  0
   -0.8531    3.3303    0.0000 F   0  0  0  0  0  0  0  0  0  0  0  0
  1  2  1  0
  2  3  1  0
  2  4  1  0
  2  5  1  0
  5  6  1  0
  5  7  1  0
  7  8  1  0
  7  9  1  0
  7 10  1  0
 10 11  1  0
 10 12  1  0
 10 13  1  0
 13 14  1  0
 13 15  1  0
 13 16  1  0
 16 17  1  0
 16 18  1  0
 16 19  1  0
 19 20  1  0
 20 21  1  0
 20 22  1  0
 20 23  1  0
 19 24  1  0
 24 25  1  0
 24 26  1  0
 24 27  1  0
 27 28  1  0
 28 29  1  0
 28 30  1  0
 28 31  1  0
 27 32  1  0
 32 33  1  0
 32 34  1  0
 32 35  1  0
 35 36  1  0
 35 37  1  0
 35 38  1  0
 38 39  1  0
 38 40  1  0
 38 41  1  0
 41 42  1  0
 41 43  1  0
 41 44  1  0
 44 45  1  0
 44 46  1  0
 46 47  1  0
 46 48  1  0
 46 49  1  0
 19  5  1  0
 44 27  1  0
M  END
$$$$

     RDKit          2D

 18 18  0  0  0  0  0  0  0  0999 V2000
    3.0000    0.0000    0.0000 F   0  0  0  0  0  0  0  0  0  0  0  0
    1.5000    0.0000    0.0000 C   0  0  0  0  0  0  0  0  0  0  0  0
    0.7500   -1.2990    0.0000 C   0  0  0  0  0  0  0  0  0  0  0  0
    1.5000   -2.5981    0.0000 F   0  0  0  0  0  0  0  0  0  0  0  0
   -0.7500   -1.2990    0.0000 C   0  0  0  0  0  0  0  0  0  0  0  0
   -0.4895   -2.7762    0.0000 F   0  0  0  0  0  0  0  0  0  0  0  0
   -1.6269   -1.7459    0.0000 F   0  0  0  0  0  0  0  0  0  0  0  0
   -1.5000    0.0000    0.0000 C   0  0  0  0  0  0  0  0  0  0  0  0
   -2.6491    0.9642    0.0000 F   0  0  0  0  0  0  0  0  0  0  0  0
   -2.6491   -0.9642    0.0000 C   0  0  0  0  0  0  0  0  0  0  0  0
   -2.5976   -1.9470    0.0000 F   0  0  0  0  0  0  0  0  0  0  0  0
   -4.0586   -0.4512    0.0000 F   0  0  0  0  0  0  0  0  0  0  0  0
   -0.7500    1.2990    0.0000 C   0  0  0  0  0  0  0  0  0  0  0  0
   -2.1595    1.8121    0.0000 F   0  0  0  0  0  0  0  0  0  0  0  0
   -0.4895    2.7762    0.0000 F   0  0  0  0  0  0  0  0  0  0  0  0
    0.7500    1.2990    0.0000 C   0  0  0  0  0  0  0  0  0  0  0  0
    0.4895    2.7762    0.0000 F   0  0  0  0  0  0  0  0  0  0  0  0
    2.1595    1.8121    0.0000 F   0  0  0  0  0  0  0  0  0  0  0  0
  1  2  1  0
  2  3  2  0
  3  4  1  0
  3  5  1  0
  5  6  1  0
  5  7  1  0
  5  8  1  0
  8  9  1  0
  8 10  1  0
 10 11  1  0
 10 12  1  0
  8 13  1  0
 13 14  1  0
 13 15  1  0
 13 16  1  0
 16 17  1  0
 16 18  1  0
 16  2  1  0
M  END
$$$$
