
     RDKit          2D

 27 25  0  0  0  0  0  0  0  0999 V2000
    7.7942   -0.0000    0.0000 C   0  0  0  0  0  0  0  0  0  0  0  0
    6.4952    0.7500    0.0000 N   0  0  0  0  0  0  0  0  0  0  0  0
    5.1962    0.0000    0.0000 C   0  0  0  0  0  0  0  0  0  0  0  0
    6.4952    2.2500    0.0000 C   0  0  0  0  0  0  0  0  0  0  0  0
    5.1962    3.0000    0.0000 C   0  0  0  0  0  0  0  0  0  0  0  0
    5.1962    4.5000    0.0000 C   0  0  0  0  0  0  0  0  0  0  0  0
    3.8971    5.2500    0.0000 N   0  0  0  0  0  0  0  0  0  0  0  0
    3.8971    6.7500    0.0000 S   0  0  0  0  0  0  0  0  0  0  0  0
    5.3971    6.7500    0.0000 O   0  0  0  0  0  0  0  0  0  0  0  0
    3.1059    6.6528    0.0000 O   0  0  0  0  0  0  0  0  0  0  0  0
    3.8971    8.2500    0.0000 C   0  0  0  0  0  0  0  0  0  0  0  0
    5.3971    8.2500    0.0000 F   0  0  0  0  0  0  0  0  0  0  0  0
    3.8971    9.7500    0.0000 F   0  0  0  0  0  0  0  0  0  0  0  0
    2.3971    8.2500    0.0000 C   0  0  0  0  0  0  0  0  0  0  0  0
    2.2891    7.3709    0.0000 F   0  0  0  0  0  0  0  0  0  0  0  0
    2.3971    9.7500    0.0000 F   0  0  0  0  0  0  0  0  0  0  0  0
    0.8971    8.2500    0.0000 C   0  0  0  0  0  0  0  0  0  0  0  0
    0.8971    6.7500    0.0000 F   0  0  0  0  0  0  0  0  0  0  0  0
    0.8971    9.7500    0.0000 F   0  0  0  0  0  0  0  0  0  0  0  0
   -0.6029    8.2500    0.0000 C   0  0  0  0  0  0  0  0  0  0  0  0
   -0.6029    6.7500    0.0000 F   0  0  0  0  0  0  0  0  0  0  0  0
   -0.6029    9.7500    0.0000 F   0  0  0  0  0  0  0  0  0  0  0  0
   -2.1029    8.2500    0.0000 C   0  0  0  0  0  0  0  0  0  0  0  0
   -3.6029    8.2500    0.0000 F   0  0  0  0  0  0  0  0  0  0  0  0
   -2.1029    9.7500    0.0000 F   0  0  0  0  0  0  0  0  0  0  0  0
   -2.1029    6.7500    0.0000 F   0  0  0  0  0  0  0  0  0  0  0  0
    0.0000   10.7500    0.0000 Cl  0  0  0  0  0  0  0  0  0  0  0  0
  1  2  1  0
  2  3  1  0
  2  4  1  0
  4  5  1  0
  5  6  1  0
  6  7  1  0
  7  8  1  0
  8  9  2  0
  8 10  2  0
  8 11  1  0
 11 12  1  0
 11 13  1  0
 11 14  1  0
 14 15  1  0
 14 16  1  0
 14 17  1  0
 17 18  1  0
 17 19  1  0
 17 20  1  0
 20 21  1  0
 20 22  1  0
 20 23  1  0
 23 24  1  0
 23 25  1  0
 23 26  1  0
M  END
$$$$

     RDKit          2D

 28 27  0  0  0  0  0  0  0  0999 V2000
    1.2990   -2.2500    0.0000 C   0  0  0  0  0  0  0  0  0  0  0  0
    2.5981   -1.5000    0.0000 C   0  0  0  0  0  0  0  0  0  0  0  0
    2.5981   -0.0000    0.0000 N   0  0  0  0  0  0  0  0  0  0  0  0
    3.8971    0.7500    0.0000 S   0  0  0  0  0  0  0  0  0  0  0  0
    4.6471   -0.5490    0.0000 O   0  0  0  0  0  0  0  0  0  0  0  0
    3.4174    1.3866    0.0000 O   0  0  0  0  0  0  0  0  0  0  0  0
    5.1962    1.5000    0.0000 C   0  0  0  0  0  0  0  0  0  0  0  0
    5.9462    0.2010    0.0000 F   0  0  0  0  0  0  0  0  0  0  0  0
    6.4952    2.2500    0.0000 F   0  0  0  0  0  0  0  0  0  0  0  0
    4.4462    2.7990    0.0000 C   0  0  0  0  0  0  0  0  0  0  0  0
    3.6308    2.4530    0.0000 F   0  0  0  0  0  0  0  0  0  0  0  0
    5.7452    3.5490    0.0000 F   0  0  0  0  0  0  0  0  0  0  0  0
    3.6962    4.0981    0.0000 C   0  0  0  0  0  0  0  0  0  0  0  0
    2.3971    3.3481    0.0000 F   0  0  0  0  0  0  0  0  0  0  0  0
    4.9952    4.8481    0.0000 F   0  0  0  0  0  0  0  0  0  0  0  0
    2.9462    5.3971    0.0000 C   0  0  0  0  0  0  0  0  0  0  0  0
    4.2452    6.1471    0.0000 F   0  0  0  0  0  0  0  0  0  0  0  0
    1.6471    4.6471    0.0000 F   0  0  0  0  0  0  0  0  0  0  0  0
    2.1962    6.6962    0.0000 C   0  0  0  0  0  0  0  0  0  0  0  0
    3.4952    7.4462    0.0000 F   0  0  0  0  0  0  0  0  0  0  0  0
    0.8971    5.9462    0.0000 F   0  0  0  0  0  0  0  0  0  0  0  0
    1.4462    7.9952    0.0000 C   0  0  0  0  0  0  0  0  0  0  0  0
    0.1471    7.2452    0.0000 F   0  0  0  0  0  0  0  0  0  0  0  0
    2.7452    8.7452    0.0000 F   0  0  0  0  0  0  0  0  0  0  0  0
    0.6962    9.2942    0.0000 C   0  0  0  0  0  0  0  0  0  0  0  0
   -0.0538   10.5933    0.0000 F   0  0  0  0  0  0  0  0  0  0  0  0
    1.9952   10.0442    0.0000 F   0  0  0  0  0  0  0  0  0  0  0  0
   -0.6029    8.5442    0.0000 F   0  0  0  0  0  0  0  0  0  0  0  0
  1  2  1  0
  2  3  1  0
  3  4  1  0
  4  5  2  0
  4  6  2  0
  4  7  1  0
  7  8  1  0
  7  9  1  0
  7 10  1  0
 10 11  1  0
 10 12  1  0
 10 13  1  0
 13 14  1  0
 13 15  1  0
 13 16  1  0
 16 17  1  0
 16 18  1  0
 16 19  1  0
 19 20  1  0
 19 21  1  0
 19 22  1  0
 22 23  1  0
 22 24  1  0
 22 25  1  0
 25 26  1  0
 25 27  1  0
 25 28  1  0
M  END
$$$$

     RDKit          2D

 48 48  0  0  0  0  0  0  0  0999 V2000
    5.2500    1.2990    0.0000 C   0  0  0  0  0  0  0  0  0  0  0  0
    4.5000    0.0000    0.0000 N   0  0  0  0  0  0  0  0  0  0  0  0
    5.2500   -1.2990    0.0000 C   0  0  0  0  0  0  0  0  0  0  0  0
    6.7500   -1.2990    0.0000 C   0  0  0  0  0  0  0  0  0  0  0  0
    7.5000   -2.5981    0.0000 O   0  0  0  0  0  0  0  0  0  0  0  0
    9.0000   -2.5981    0.0000 P   0  0  0  0  0  0  0  0  0  0  0  0
    9.0000   -4.0981    0.0000 O   0  0  0  0  0  0  0  0  0  0  0  0
    9.0000   -1.0981    0.0000 O   0  0  0  0  0  0  0  0  0  0  0  0
   10.5000   -2.5981    0.0000 O   0  0  0  0  0  0  0  0  0  0  0  0
    3.0000    0.0000    0.0000 S   0  0  0  0  0  0  0  0  0  0  0  0
    3.0000   -1.5000    0.0000 O   0  0  0  0  0  0  0  0  0  0  0  0
    3.0000    1.5000    0.0000 O   0  0  0  0  0  0  0  0  0  0  0  0
    1.5000    0.0000    0.0000 C   0  0  0  0  0  0  0  0  0  0  0  0
    0.7500   -1.2990    0.0000 C   0  0  0  0  0  0  0  0  0  0  0  0
   -0.7500   -1.2990    0.0000 C   0  0  0  0  0  0  0  0  0  0  0  0
   -1.5000    0.0000    0.0000 C   0  0  0  0  0  0  0  0  0  0  0  0
   -3.0000    0.0000    0.0000 O   0  0  0  0  0  0  0  0  0  0  0  0
   -3.7500    1.2990    0.0000 C   0  0  0  0  0  0  0  0  0  0  0  0
   -5.2500    1.2990    0.0000 C   0  0  0  0  0  0  0  0  0  0  0  0
   -6.0000   -0.0000    0.0000 C   0  0  0  0  0  0  0  0  0  0  0  0
   -6.7500   -1.2990    0.0000 F   0  0  0  0  0  0  0  0  0  0  0  0
   -6.8153    0.3461    0.0000 F   0  0  0  0  0  0  0  0  0  0  0  0
   -4.7010   -0.7500    0.0000 F   0  0  0  0  0  0  0  0  0  0  0  0
   -6.0000    2.5981    0.0000 C   0  0  0  0  0  0  0  0  0  0  0  0
   -4.7010    3.3481    0.0000 C   0  0  0  0  0  0  0  0  0  0  0  0
   -3.4019    4.0981    0.0000 F   0  0  0  0  0  0  0  0  0  0  0  0
   -5.0470    4.1634    0.0000 F   0  0  0  0  0  0  0  0  0  0  0  0
   -3.6589    2.2691    0.0000 F   0  0  0  0  0  0  0  0  0  0  0  0
   -6.7500    3.8971    0.0000 C   0  0  0  0  0  0  0  0  0  0  0  0
   -6.0426    4.4302    0.0000 F   0  0  0  0  0  0  0  0  0  0  0  0
   -7.5653    3.5511    0.0000 F   0  0  0  0  0  0  0  0  0  0  0  0
   -7.5000    5.1962    0.0000 C   0  0  0  0  0  0  0  0  0  0  0  0
   -8.2500    6.4952    0.0000 F   0  0  0  0  0  0  0  0  0  0  0  0
   -6.2010    5.9462    0.0000 F   0  0  0  0  0  0  0  0  0  0  0  0
   -8.7990    4.4462    0.0000 F   0  0  0  0  0  0  0  0  0  0  0  0
   -7.2990    1.8481    0.0000 C   0  0  0  0  0  0  0  0  0  0  0  0
   -7.8321    2.5554    0.0000 F   0  0  0  0  0  0  0  0  0  0  0  0
   -7.1605    0.9732    0.0000 F   0  0  0  0  0  0  0  0  0  0  0  0
   -8.5981    1.0981    0.0000 C   0  0  0  0  0  0  0  0  0  0  0  0
   -9.8971    0.3481    0.0000 F   0  0  0  0  0  0  0  0  0  0  0  0
   -9.3481    2.3971    0.0000 F   0  0  0  0  0  0  0  0  0  0  0  0
   -7.8481   -0.2010    0.0000 F   0  0  0  0  0  0  0  0  0  0  0  0
   -3.0000    2.5981    0.0000 C   0  0  0  0  0  0  0  0  0  0  0  0
   -2.2500    3.8971    0.0000 F   0  0  0  0  0  0  0  0  0  0  0  0
   -4.0790    3.6401    0.0000 F   0  0  0  0  0  0  0  0  0  0  0  0
   -1.7010    1.8481    0.0000 F   0  0  0  0  0  0  0  0  0  0  0  0
   -0.7500    1.2990    0.0000 C   0  0  0  0  0  0  0  0  0  0  0  0
    0.7500    1.2990    0.0000 C   0  0  0  0  0  0  0  0  0  0  0  0
  1  2  1  0
  2  3  1  0
  3  4  1  0
  4  5  1  0
  5  6  1  0
  6  7  2  0
  6  8  1  0
  6  9  1  0
  2 10  1  0
 10 11  2  0
 10 12  2  0
 10 13  1  0
 13 14  2  0
 14 15  1  0
 15 16  2  0
 16 17  1  0
 17 18  1  0
 18 19  2  3
 19 20  1  0
 20 21  1  0
 20 22  1  0
 20 23  1  0
 19 24  1  0
 24 25  1  0
 25 26  1  0
 25 27  1  0
 25 28  1  0
 24 29  1  0
 29 30  1  0
 29 31  1  0
 29 32  1  0
 32 33  1  0
 32 34  1  0
 32 35  1  0
 24 36  1  0
 36 37  1  0
 36 38  1  0
 36 39  1  0
 39 40  1  0
 39 41  1  0
 39 42  1  0
 18 43  1  0
 43 44  1  0
 43 45  1  0
 43 46  1  0
 16 47  1  0
 47 48  2  0
 48 13  1  0
M  END
$$$$

     RDKit          2D

 28 28  0  0  0  0  0  0  0  0999 V2000
    3.7500    1.2990    0.0000 O   0  0  0  0  0  0  0  0  0  0  0  0
    3.0000    0.0000    0.0000 C   0  0  0  0  0  0  0  0  0  0  0  0
    3.7500   -1.2990    0.0000 O   0  0  0  0  0  0  0  0  0  0  0  0
    1.5000    0.0000    0.0000 C   0  0  0  0  0  0  0  0  0  0  0  0
    0.7500   -1.2990    0.0000 C   0  0  0  0  0  0  0  0  0  0  0  0
   -0.7500   -1.2990    0.0000 C   0  0  0  0  0  0  0  0  0  0  0  0
   -1.5000    0.0000    0.0000 C   0  0  0  0  0  0  0  0  0  0  0  0
   -3.0000    0.0000    0.0000 C   0  0  0  0  0  0  0  0  0  0  0  0
   -3.0000    1.5000    0.0000 F   0  0  0  0  0  0  0  0  0  0  0  0
   -3.0000   -1.5000    0.0000 F   0  0  0  0  0  0  0  0  0  0  0  0
   -4.5000    0.0000    0.0000 C   0  0  0  0  0  0  0  0  0  0  0  0
   -4.5000   -1.5000    0.0000 F   0  0  0  0  0  0  0  0  0  0  0  0
   -4.5000    1.5000    0.0000 F   0  0  0  0  0  0  0  0  0  0  0  0
   -6.0000    0.0000    0.0000 C   0  0  0  0  0  0  0  0  0  0  0  0
   -6.0000    1.5000    0.0000 F   0  0  0  0  0  0  0  0  0  0  0  0
   -6.0000   -1.5000    0.0000 F   0  0  0  0  0  0  0  0  0  0  0  0
   -7.5000    0.0000    0.0000 C   0  0  0  0  0  0  0  0  0  0  0  0
   -7.5000   -1.5000    0.0000 F   0  0  0  0  0  0  0  0  0  0  0  0
   -7.5000    1.5000    0.0000 F   0  0  0  0  0  0  0  0  0  0  0  0
   -9.0000    0.0000    0.0000 C   0  0  0  0  0  0  0  0  0  0  0  0
   -9.0000    1.5000    0.0000 F   0  0  0  0  0  0  0  0  0  0  0  0
   -9.0000   -1.5000    0.0000 F   0  0  0  0  0  0  0  0  0  0  0  0
  -10.5000    0.0000    0.0000 C   0  0  0  0  0  0  0  0  0  0  0  0
  -12.0000    0.0000    0.0000 F   0  0  0  0  0  0  0  0  0  0  0  0
  -10.5000   -1.5000    0.0000 F   0  0  0  0  0  0  0  0  0  0  0  0
  -10.5000    1.5000    0.0000 F   0  0  0  0  0  0  0  0  0  0  0  0
   -0.7500    1.2990    0.0000 C   0  0  0  0  0  0  0  0  0  0  0  0
    0.7500    1.2990    0.0000 C   0  0  0  0  0  0  0  0  0  0  0  0
  1  2  2  0
  2  3  1  0
  2  4  1  0
  4  5  1  0
  5  6  1  0
  6  7  1  0
  7  8  1  0
  8  9  1  0
  8 10  1  0
  8 11  1  0
 11 12  1  0
 11 13  1  0
 11 14  1  0
 14 15  1  0
 14 16  1  0
 14 17  1  0
 17 18  1  0
 17 19  1  0
 17 20  1  0
 20 21  1  0
 20 22  1  0
 20 23  1  0
 23 24  1  0
 23 25  1  0
 23 26  1  0
  7 27  1  0
 27 28  1  0
 28  4  1  0
M  END
$$$$

     RDKit          2D

 30 28  0  0  0  0  0  0  0  0999 V2000
   -1.5000    3.2500    0.0000 O   0  0  0  0  0  0  0  0  0  0  0  0
    0.0000    3.2500    0.0000 S   0  0  0  0  0  0  0  0  0  0  0  0
    0.7912    3.1528    0.0000 O   0  0  0  0  0  0  0  0  0  0  0  0
   -0.0000    1.7500    0.0000 O   0  0  0  0  0  0  0  0  0  0  0  0
    0.0000    4.7500    0.0000 C   0  0  0  0  0  0  0  0  0  0  0  0
   -1.5000    4.7500    0.0000 F   0  0  0  0  0  0  0  0  0  0  0  0
    0.0000    6.2500    0.0000 F   0  0  0  0  0  0  0  0  0  0  0  0
    1.5000    4.7500    0.0000 C   0  0  0  0  0  0  0  0  0  0  0  0
    1.5000    6.2500    0.0000 F   0  0  0  0  0  0  0  0  0  0  0  0
    1.6080    3.8709    0.0000 F   0  0  0  0  0  0  0  0  0  0  0  0
    3.0000    4.7500    0.0000 C   0  0  0  0  0  0  0  0  0  0  0  0
    3.0000    3.2500    0.0000 F   0  0  0  0  0  0  0  0  0  0  0  0
    3.0000    6.2500    0.0000 F   0  0  0  0  0  0  0  0  0  0  0  0
    4.5000    4.7500    0.0000 C   0  0  0  0  0  0  0  0  0  0  0  0
    4.5000    3.2500    0.0000 F   0  0  0  0  0  0  0  0  0  0  0  0
    4.5000    6.2500    0.0000 F   0  0  0  0  0  0  0  0  0  0  0  0
    6.0000    4.7500    0.0000 C   0  0  0  0  0  0  0  0  0  0  0  0
    6.0000    6.2500    0.0000 F   0  0  0  0  0  0  0  0  0  0  0  0
    6.0000    3.2500    0.0000 F   0  0  0  0  0  0  0  0  0  0  0  0
    7.5000    4.7500    0.0000 C   0  0  0  0  0  0  0  0  0  0  0  0
    9.0000    4.7500    0.0000 F   0  0  0  0  0  0  0  0  0  0  0  0
    7.5000    3.2500    0.0000 F   0  0  0  0  0  0  0  0  0  0  0  0
    7.5000    6.2500    0.0000 F   0  0  0  0  0  0  0  0  0  0  0  0
   -1.2990    0.7500    0.0000 O   0  0  0  0  0  0  0  0  0  0  0  0
    0.0000    0.0000    0.0000 C   0  0  0  0  0  0  0  0  0  0  0  0
    1.2990    0.7500    0.0000 C   0  0  0  0  0  0  0  0  0  0  0  0
    2.5981   -0.0000    0.0000 N   0  0  0  0  0  0  0  0  0  0  0  0
    3.8971    0.7500    0.0000 C   0  0  0  0  0  0  0  0  0  0  0  0
    5.1962   -0.0000    0.0000 C   0  0  0  0  0  0  0  0  0  0  0  0
    6.4952    0.7500    0.0000 O   0  0  0  0  0  0  0  0  0  0  0  0
  1  2  2  0
  2  3  2  0
  2  4  1  0
  2  5  1  0
  5  6  1  0
  5  7  1  0
  5  8  1  0
  8  9  1  0
  8 10  1  0
  8 11  1  0
 11 12  1  0
 11 13  1  0
 11 14  1  0
 14 15  1  0
 14 16  1  0
 14 17  1  0
 17 18  1  0
 17 19  1  0
 17 20  1  0
 20 21  1  0
 20 22  1  0
 20 23  1  0
 24 25  1  0
 25 26  1  0
 26 27  1  0
 27 28  1  0
 28 29  1  0
 29 30  1  0
M  CHG  2   4  -1  27   1
M  END
$$$$

     RDKit          2D

 24 22  0  0  0  0  0  0  0  0999 V2000
   -1.5000    3.2500    0.0000 O   0  0  0  0  0  0  0  0  0  0  0  0
    0.0000    3.2500    0.0000 S   0  0  0  0  0  0  0  0  0  0  0  0
    0.7912    3.1528    0.0000 O   0  0  0  0  0  0  0  0  0  0  0  0
   -0.0000    1.7500    0.0000 O   0  0  0  0  0  0  0  0  0  0  0  0
    0.0000    4.7500    0.0000 C   0  0  0  0  0  0  0  0  0  0  0  0
   -1.5000    4.7500    0.0000 F   0  0  0  0  0  0  0  0  0  0  0  0
    0.0000    6.2500    0.0000 F   0  0  0  0  0  0  0  0  0  0  0  0
    1.5000    4.7500    0.0000 C   0  0  0  0  0  0  0  0  0  0  0  0
    1.5000    6.2500    0.0000 F   0  0  0  0  0  0  0  0  0  0  0  0
    1.6080    3.8709    0.0000 F   0  0  0  0  0  0  0  0  0  0  0  0
    3.0000    4.7500    0.0000 C   0  0  0  0  0  0  0  0  0  0  0  0
    3.0000    6.2500    0.0000 F   0  0  0  0  0  0  0  0  0  0  0  0
    3.0000    3.2500    0.0000 F   0  0  0  0  0  0  0  0  0  0  0  0
    4.5000    4.7500    0.0000 C   0  0  0  0  0  0  0  0  0  0  0  0
    6.0000    4.7500    0.0000 F   0  0  0  0  0  0  0  0  0  0  0  0
    4.5000    3.2500    0.0000 F   0  0  0  0  0  0  0  0  0  0  0  0
    4.5000    6.2500    0.0000 F   0  0  0  0  0  0  0  0  0  0  0  0
   -1.2990    0.7500    0.0000 O   0  0  0  0  0  0  0  0  0  0  0  0
    0.0000    0.0000    0.0000 C   0  0  0  0  0  0  0  0  0  0  0  0
    1.2990    0.7500    0.0000 C   0  0  0  0  0  0  0  0  0  0  0  0
    2.5981   -0.0000    0.0000 N   0  0  0  0  0  0  0  0  0  0  0  0
    3.8971    0.7500    0.0000 C   0  0  0  0  0  0  0  0  0  0  0  0
    5.1962   -0.0000    0.0000 C   0  0  0  0  0  0  0  0  0  0  0  0
    6.4952    0.7500    0.0000 O   0  0  0  0  0  0  0  0  0  0  0  0
  1  2  2  0
  2  3  2  0
  2  4  1  0
  2  5  1  0
  5  6  1  0
  5  7  1  0
  5  8  1  0
  8  9  1  0
  8 10  1  0
  8 11  1  0
 11 12  1  0
 11 13  1  0
 11 14  1  0
 14 15  1  0
 14 16  1  0
 14 17  1  0
 18 19  1  0
 19 20  1  0
 20 21  1  0
 21 22  1  0
 22 23  1  0
 23 24  1  0
M  CHG  2   4  -1  21   1
M  END
$$$$

     RDKit          2D

 53 50  0  0  0  0  0  0  0  0999 V2000
    7.0981    4.0981    0.0000 C   0  0  0  0  0  0  0  0  0  0  0  0
    5.7990    3.3481    0.0000 N   0  0  0  0  0  0  0  0  0  0  0  0
    4.5000    2.5981    0.0000 C   0  0  0  0  0  0  0  0  0  0  0  0
    6.5490    2.0490    0.0000 C   0  0  0  0  0  0  0  0  0  0  0  0
    5.0490    4.6471    0.0000 C   0  0  0  0  0  0  0  0  0  0  0  0
    3.5490    4.6471    0.0000 C   0  0  0  0  0  0  0  0  0  0  0  0
    2.7990    5.9462    0.0000 C   0  0  0  0  0  0  0  0  0  0  0  0
    1.2990    5.9462    0.0000 N   0  0  0  0  0  0  0  0  0  0  0  0
    0.5490    7.2452    0.0000 S   0  0  0  0  0  0  0  0  0  0  0  0
    1.8481    7.9952    0.0000 O   0  0  0  0  0  0  0  0  0  0  0  0
   -0.0876    6.7654    0.0000 O   0  0  0  0  0  0  0  0  0  0  0  0
   -0.2010    8.5442    0.0000 C   0  0  0  0  0  0  0  0  0  0  0  0
    1.0981    9.2942    0.0000 F   0  0  0  0  0  0  0  0  0  0  0  0
   -0.9510    9.8433    0.0000 F   0  0  0  0  0  0  0  0  0  0  0  0
   -1.5000    7.7942    0.0000 C   0  0  0  0  0  0  0  0  0  0  0  0
   -1.1539    6.9789    0.0000 F   0  0  0  0  0  0  0  0  0  0  0  0
   -2.2500    9.0933    0.0000 F   0  0  0  0  0  0  0  0  0  0  0  0
   -2.7990    7.0442    0.0000 C   0  0  0  0  0  0  0  0  0  0  0  0
   -3.5490    8.3433    0.0000 F   0  0  0  0  0  0  0  0  0  0  0  0
   -2.0490    5.7452    0.0000 F   0  0  0  0  0  0  0  0  0  0  0  0
   -4.0981    6.2942    0.0000 C   0  0  0  0  0  0  0  0  0  0  0  0
   -5.3971    5.5442    0.0000 F   0  0  0  0  0  0  0  0  0  0  0  0
   -3.3481    4.9952    0.0000 F   0  0  0  0  0  0  0  0  0  0  0  0
   -4.8481    7.5933    0.0000 F   0  0  0  0  0  0  0  0  0  0  0  0
    7.0981   12.8923    0.0000 C   0  0  0  0  0  0  0  0  0  0  0  0
    5.7990   12.1423    0.0000 N   0  0  0  0  0  0  0  0  0  0  0  0
    4.5000   11.3923    0.0000 C   0  0  0  0  0  0  0  0  0  0  0  0
    6.5490   10.8433    0.0000 C   0  0  0  0  0  0  0  0  0  0  0  0
    5.0490   13.4413    0.0000 C   0  0  0  0  0  0  0  0  0  0  0  0
    3.5490   13.4413    0.0000 C   0  0  0  0  0  0  0  0  0  0  0  0
    2.7990   14.7404    0.0000 C   0  0  0  0  0  0  0  0  0  0  0  0
    1.2990   14.7404    0.0000 N   0  0  0  0  0  0  0  0  0  0  0  0
    0.5490   16.0394    0.0000 S   0  0  0  0  0  0  0  0  0  0  0  0
    1.8481   16.7894    0.0000 O   0  0  0  0  0  0  0  0  0  0  0  0
   -0.0876   15.5597    0.0000 O   0  0  0  0  0  0  0  0  0  0  0  0
   -0.2010   17.3385    0.0000 C   0  0  0  0  0  0  0  0  0  0  0  0
    1.0981   18.0885    0.0000 F   0  0  0  0  0  0  0  0  0  0  0  0
   -0.9510   18.6375    0.0000 F   0  0  0  0  0  0  0  0  0  0  0  0
   -1.5000   16.5885    0.0000 C   0  0  0  0  0  0  0  0  0  0  0  0
   -1.1539   15.7731    0.0000 F   0  0  0  0  0  0  0  0  0  0  0  0
   -2.2500   17.8875    0.0000 F   0  0  0  0  0  0  0  0  0  0  0  0
   -2.7990   15.8385    0.0000 C   0  0  0  0  0  0  0  0  0  0  0  0
   -3.5490   17.1375    0.0000 F   0  0  0  0  0  0  0  0  0  0  0  0
   -2.0490   14.5394    0.0000 F   0  0  0  0  0  0  0  0  0  0  0  0
   -4.0981   15.0885    0.0000 C   0  0  0  0  0  0  0  0  0  0  0  0
   -5.3971   14.3385    0.0000 F   0  0  0  0  0  0  0  0  0  0  0  0
   -3.3481   13.7894    0.0000 F   0  0  0  0  0  0  0  0  0  0  0  0
   -4.8481   16.3875    0.0000 F   0  0  0  0  0  0  0  0  0  0  0  0
    8.0981    0.0000    0.0000 O   0  0  0  0  0  0  0  0  0  0  0  0
    9.3971    0.7500    0.0000 S   0  0  0  0  0  0  0  0  0  0  0  0
   10.6962    1.5000    0.0000 O   0  0  0  0  0  0  0  0  0  0  0  0
    8.6471    2.0490    0.0000 O   0  0  0  0  0  0  0  0  0  0  0  0
   10.1471   -0.5490    0.0000 O   0  0  0  0  0  0  0  0  0  0  0  0
  1  2  1  0
  2  3  1  0
  2  4  1  0
  2  5  1  0
  5  6  1  0
  6  7  1  0
  7  8  1  0
  8  9  1  0
  9 10  2  0
  9 11  2  0
  9 12  1  0
 12 13  1  0
 12 14  1  0
 12 15  1  0
 15 16  1  0
 15 17  1  0
 15 18  1  0
 18 19  1  0
 18 20  1  0
 18 21  1  0
 21 22  1  0
 21 23  1  0
 21 24  1  0
 25 26  1  0
 26 27  1  0
 26 28  1  0
 26 29  1  0
 29 30  1  0
 30 31  1  0
 31 32  1  0
 32 33  1  0
 33 34  2  0
 33 35  2  0
 33 36  1  0
 36 37  1  0
 36 38  1  0
 36 39  1  0
 39 40  1  0
 39 41  1  0
 39 42  1  0
 42 43  1  0
 42 44  1  0
 42 45  1  0
 45 46  1  0
 45 47  1  0
 45 48  1  0
 49 50  2  0
 50 51  2  0
 50 52  1  0
 50 53  1  0
M  CHG  4   2   1  26   1  52  -1  53  -1
M  END
$$$$

     RDKit          2D

 77 74  0  0  0  0  0  0  0  0999 V2000
    7.0981    4.0981    0.0000 C   0  0  0  0  0  0  0  0  0  0  0  0
    5.7990    3.3481    0.0000 N   0  0  0  0  0  0  0  0  0  0  0  0
    4.5000    2.5981    0.0000 C   0  0  0  0  0  0  0  0  0  0  0  0
    6.5490    2.0490    0.0000 C   0  0  0  0  0  0  0  0  0  0  0  0
    5.0490    4.6471    0.0000 C   0  0  0  0  0  0  0  0  0  0  0  0
    3.5490    4.6471    0.0000 C   0  0  0  0  0  0  0  0  0  0  0  0
    2.7990    5.9462    0.0000 C   0  0  0  0  0  0  0  0  0  0  0  0
    1.2990    5.9462    0.0000 N   0  0  0  0  0  0  0  0  0  0  0  0
    0.5490    7.2452    0.0000 S   0  0  0  0  0  0  0  0  0  0  0  0
    1.8481    7.9952    0.0000 O   0  0  0  0  0  0  0  0  0  0  0  0
   -0.0876    6.7654    0.0000 O   0  0  0  0  0  0  0  0  0  0  0  0
   -0.2010    8.5442    0.0000 C   0  0  0  0  0  0  0  0  0  0  0  0
    1.0981    9.2942    0.0000 F   0  0  0  0  0  0  0  0  0  0  0  0
   -0.9510    9.8433    0.0000 F   0  0  0  0  0  0  0  0  0  0  0  0
   -1.5000    7.7942    0.0000 C   0  0  0  0  0  0  0  0  0  0  0  0
   -1.1539    6.9789    0.0000 F   0  0  0  0  0  0  0  0  0  0  0  0
   -2.2500    9.0933    0.0000 F   0  0  0  0  0  0  0  0  0  0  0  0
   -2.7990    7.0442    0.0000 C   0  0  0  0  0  0  0  0  0  0  0  0
   -2.0490    5.7452    0.0000 F   0  0  0  0  0  0  0  0  0  0  0  0
   -3.5490    8.3433    0.0000 F   0  0  0  0  0  0  0  0  0  0  0  0
   -4.0981    6.2942    0.0000 C   0  0  0  0  0  0  0  0  0  0  0  0
   -4.8481    7.5933    0.0000 F   0  0  0  0  0  0  0  0  0  0  0  0
   -3.3481    4.9952    0.0000 F   0  0  0  0  0  0  0  0  0  0  0  0
   -5.3971    5.5442    0.0000 C   0  0  0  0  0  0  0  0  0  0  0  0
   -6.1471    6.8433    0.0000 F   0  0  0  0  0  0  0  0  0  0  0  0
   -4.6471    4.2452    0.0000 F   0  0  0  0  0  0  0  0  0  0  0  0
   -6.6962    4.7942    0.0000 C   0  0  0  0  0  0  0  0  0  0  0  0
   -5.9462    3.4952    0.0000 F   0  0  0  0  0  0  0  0  0  0  0  0
   -7.4462    6.0933    0.0000 F   0  0  0  0  0  0  0  0  0  0  0  0
   -7.9952    4.0442    0.0000 C   0  0  0  0  0  0  0  0  0  0  0  0
   -8.7452    5.3433    0.0000 F   0  0  0  0  0  0  0  0  0  0  0  0
   -7.2452    2.7452    0.0000 F   0  0  0  0  0  0  0  0  0  0  0  0
   -9.2942    3.2942    0.0000 C   0  0  0  0  0  0  0  0  0  0  0  0
  -10.5933    2.5442    0.0000 F   0  0  0  0  0  0  0  0  0  0  0  0
   -8.5442    1.9952    0.0000 F   0  0  0  0  0  0  0  0  0  0  0  0
  -10.0442    4.5933    0.0000 F   0  0  0  0  0  0  0  0  0  0  0  0
    7.0981   12.9462    0.0000 C   0  0  0  0  0  0  0  0  0  0  0  0
    5.7990   12.1962    0.0000 N   0  0  0  0  0  0  0  0  0  0  0  0
    4.5000   11.4462    0.0000 C   0  0  0  0  0  0  0  0  0  0  0  0
    6.5490   10.8971    0.0000 C   0  0  0  0  0  0  0  0  0  0  0  0
    5.0490   13.4952    0.0000 C   0  0  0  0  0  0  0  0  0  0  0  0
    3.5490   13.4952    0.0000 C   0  0  0  0  0  0  0  0  0  0  0  0
    2.7990   14.7942    0.0000 C   0  0  0  0  0  0  0  0  0  0  0  0
    1.2990   14.7942    0.0000 N   0  0  0  0  0  0  0  0  0  0  0  0
    0.5490   16.0933    0.0000 S   0  0  0  0  0  0  0  0  0  0  0  0
    1.8481   16.8433    0.0000 O   0  0  0  0  0  0  0  0  0  0  0  0
   -0.0876   15.6135    0.0000 O   0  0  0  0  0  0  0  0  0  0  0  0
   -0.2010   17.3923    0.0000 C   0  0  0  0  0  0  0  0  0  0  0  0
    1.0981   18.1423    0.0000 F   0  0  0  0  0  0  0  0  0  0  0  0
   -0.9510   18.6913    0.0000 F   0  0  0  0  0  0  0  0  0  0  0  0
   -1.5000   16.6423    0.0000 C   0  0  0  0  0  0  0  0  0  0  0  0
   -1.1539   15.8270    0.0000 F   0  0  0  0  0  0  0  0  0  0  0  0
   -2.2500   17.9413    0.0000 F   0  0  0  0  0  0  0  0  0  0  0  0
   -2.7990   15.8923    0.0000 C   0  0  0  0  0  0  0  0  0  0  0  0
   -2.0490   14.5933    0.0000 F   0  0  0  0  0  0  0  0  0  0  0  0
   -3.5490   17.1913    0.0000 F   0  0  0  0  0  0  0  0  0  0  0  0
   -4.0981   15.1423    0.0000 C   0  0  0  0  0  0  0  0  0  0  0  0
   -4.8481   16.4413    0.0000 F   0  0  0  0  0  0  0  0  0  0  0  0
   -3.3481   13.8433    0.0000 F   0  0  0  0  0  0  0  0  0  0  0  0
   -5.3971   14.3923    0.0000 C   0  0  0  0  0  0  0  0  0  0  0  0
   -6.1471   15.6913    0.0000 F   0  0  0  0  0  0  0  0  0  0  0  0
   -4.6471   13.0933    0.0000 F   0  0  0  0  0  0  0  0  0  0  0  0
   -6.6962   13.6423    0.0000 C   0  0  0  0  0  0  0  0  0  0  0  0
   -5.9462   12.3433    0.0000 F   0  0  0  0  0  0  0  0  0  0  0  0
   -7.4462   14.9413    0.0000 F   0  0  0  0  0  0  0  0  0  0  0  0
   -7.9952   12.8923    0.0000 C   0  0  0  0  0  0  0  0  0  0  0  0
   -8.7452   14.1913    0.0000 F   0  0  0  0  0  0  0  0  0  0  0  0
   -7.2452   11.5933    0.0000 F   0  0  0  0  0  0  0  0  0  0  0  0
   -9.2942   12.1423    0.0000 C   0  0  0  0  0  0  0  0  0  0  0  0
  -10.5933   11.3923    0.0000 F   0  0  0  0  0  0  0  0  0  0  0  0
   -8.5442   10.8433    0.0000 F   0  0  0  0  0  0  0  0  0  0  0  0
  -10.0442   13.4413    0.0000 F   0  0  0  0  0  0  0  0  0  0  0  0
    0.0000   20.2404    0.0000 O   0  0  0  0  0  0  0  0  0  0  0  0
    1.2990   20.9904    0.0000 S   0  0  0  0  0  0  0  0  0  0  0  0
    2.5981   21.7404    0.0000 O   0  0  0  0  0  0  0  0  0  0  0  0
    0.5490   22.2894    0.0000 O   0  0  0  0  0  0  0  0  0  0  0  0
    2.0490   19.6913    0.0000 O   0  0  0  0  0  0  0  0  0  0  0  0
  1  2  1  0
  2  3  1  0
  2  4  1  0
  2  5  1  0
  5  6  1  0
  6  7  1  0
  7  8  1  0
  8  9  1  0
  9 10  2  0
  9 11  2  0
  9 12  1  0
 12 13  1  0
 12 14  1  0
 12 15  1  0
 15 16  1  0
 15 17  1  0
 15 18  1  0
 18 19  1  0
 18 20  1  0
 18 21  1  0
 21 22  1  0
 21 23  1  0
 21 24  1  0
 24 25  1  0
 24 26  1  0
 24 27  1  0
 27 28  1  0
 27 29  1  0
 27 30  1  0
 30 31  1  0
 30 32  1  0
 30 33  1  0
 33 34  1  0
 33 35  1  0
 33 36  1  0
 37 38  1  0
 38 39  1  0
 38 40  1  0
 38 41  1  0
 41 42  1  0
 42 43  1  0
 43 44  1  0
 44 45  1  0
 45 46  2  0
 45 47  2  0
 45 48  1  0
 48 49  1  0
 48 50  1  0
 48 51  1  0
 51 52  1  0
 51 53  1  0
 51 54  1  0
 54 55  1  0
 54 56  1  0
 54 57  1  0
 57 58  1  0
 57 59  1  0
 57 60  1  0
 60 61  1  0
 60 62  1  0
 60 63  1  0
 63 64  1  0
 63 65  1  0
 63 66  1  0
 66 67  1  0
 66 68  1  0
 66 69  1  0
 69 70  1  0
 69 71  1  0
 69 72  1  0
 73 74  2  0
 74 75  2  0
 74 76  1  0
 74 77  1  0
M  CHG  4   2   1  38   1  76  -1  77  -1
M  END
$$$$

     RDKit          2D

 37 37  0  0  0  0  0  0  0  0999 V2000
    3.0000   -1.5000    0.0000 O   0  0  0  0  0  0  0  0  0  0  0  0
    3.0000    0.0000    0.0000 S   0  0  0  0  0  0  0  0  0  0  0  0
    3.0000    1.5000    0.0000 O   0  0  0  0  0  0  0  0  0  0  0  0
    4.5000    0.0000    0.0000 O   0  0  0  0  0  0  0  0  0  0  0  0
    1.5000    0.0000    0.0000 C   0  0  0  0  0  0  0  0  0  0  0  0
    0.7500   -1.2990    0.0000 C   0  0  0  0  0  0  0  0  0  0  0  0
   -0.7500   -1.2990    0.0000 C   0  0  0  0  0  0  0  0  0  0  0  0
   -1.5000    0.0000    0.0000 C   0  0  0  0  0  0  0  0  0  0  0  0
   -3.0000    0.0000    0.0000 O   0  0  0  0  0  0  0  0  0  0  0  0
   -3.7500    1.2990    0.0000 C   0  0  0  0  0  0  0  0  0  0  0  0
   -3.0000    2.5981    0.0000 F   0  0  0  0  0  0  0  0  0  0  0  0
   -5.2500    1.2990    0.0000 C   0  0  0  0  0  0  0  0  0  0  0  0
   -6.0000   -0.0000    0.0000 F   0  0  0  0  0  0  0  0  0  0  0  0
   -6.0000    2.5981    0.0000 C   0  0  0  0  0  0  0  0  0  0  0  0
   -7.2990    1.8481    0.0000 F   0  0  0  0  0  0  0  0  0  0  0  0
   -4.7010    3.3481    0.0000 F   0  0  0  0  0  0  0  0  0  0  0  0
   -6.7500    3.8971    0.0000 C   0  0  0  0  0  0  0  0  0  0  0  0
   -5.4510    4.6471    0.0000 F   0  0  0  0  0  0  0  0  0  0  0  0
   -8.0490    3.1471    0.0000 F   0  0  0  0  0  0  0  0  0  0  0  0
   -7.5000    5.1962    0.0000 C   0  0  0  0  0  0  0  0  0  0  0  0
   -8.7990    4.4462    0.0000 F   0  0  0  0  0  0  0  0  0  0  0  0
   -6.2010    5.9462    0.0000 F   0  0  0  0  0  0  0  0  0  0  0  0
   -8.2500    6.4952    0.0000 C   0  0  0  0  0  0  0  0  0  0  0  0
   -6.9510    7.2452    0.0000 F   0  0  0  0  0  0  0  0  0  0  0  0
   -9.5490    5.7452    0.0000 F   0  0  0  0  0  0  0  0  0  0  0  0
   -9.0000    7.7942    0.0000 C   0  0  0  0  0  0  0  0  0  0  0  0
  -10.2990    7.0442    0.0000 F   0  0  0  0  0  0  0  0  0  0  0  0
   -7.7010    8.5442    0.0000 F   0  0  0  0  0  0  0  0  0  0  0  0
   -9.7500    9.0933    0.0000 C   0  0  0  0  0  0  0  0  0  0  0  0
   -8.4510    9.8433    0.0000 F   0  0  0  0  0  0  0  0  0  0  0  0
  -11.0490    8.3433    0.0000 F   0  0  0  0  0  0  0  0  0  0  0  0
  -10.5000   10.3923    0.0000 C   0  0  0  0  0  0  0  0  0  0  0  0
  -11.2500   11.6913    0.0000 F   0  0  0  0  0  0  0  0  0  0  0  0
  -11.7990    9.6423    0.0000 F   0  0  0  0  0  0  0  0  0  0  0  0
   -9.2010   11.1423    0.0000 F   0  0  0  0  0  0  0  0  0  0  0  0
   -0.7500    1.2990    0.0000 C   0  0  0  0  0  0  0  0  0  0  0  0
    0.7500    1.2990    0.0000 C   0  0  0  0  0  0  0  0  0  0  0  0
  1  2  2  0
  2  3  2  0
  2  4  1  0
  2  5  1  0
  5  6  2  0
  6  7  1  0
  7  8  2  0
  8  9  1  0
  9 10  1  0
 10 11  1  0
 10 12  2  3
 12 13  1  0
 12 14  1  0
 14 15  1  0
 14 16  1  0
 14 17  1  0
 17 18  1  0
 17 19  1  0
 17 20  1  0
 20 21  1  0
 20 22  1  0
 20 23  1  0
 23 24  1  0
 23 25  1  0
 23 26  1  0
 26 27  1  0
 26 28  1  0
 26 29  1  0
 29 30  1  0
 29 31  1  0
 29 32  1  0
 32 33  1  0
 32 34  1  0
 32 35  1  0
  8 36  1  0
 36 37  2  0
 37  5  1  0
M  END
$$$$

     RDKit          2D

 33 31  0  0  0  0  0  0  0  0999 V2000
    0.0000    0.0000    0.0000 C   0  0  0  0  0  0  0  0  0  0  0  0
    1.2990    0.7500    0.0000 N   0  0  0  0  0  0  0  0  0  0  0  0
    2.5981    1.5000    0.0000 C   0  0  0  0  0  0  0  0  0  0  0  0
    2.0490   -0.5490    0.0000 C   0  0  0  0  0  0  0  0  0  0  0  0
    0.5490    2.0490    0.0000 C   0  0  0  0  0  0  0  0  0  0  0  0
    1.2990    3.3481    0.0000 C   0  0  0  0  0  0  0  0  0  0  0  0
    0.5490    4.6471    0.0000 C   0  0  0  0  0  0  0  0  0  0  0  0
    1.2990    5.9462    0.0000 N   0  0  0  0  0  0  0  0  0  0  0  0
    0.5490    7.2452    0.0000 C   0  0  0  0  0  0  0  0  0  0  0  0
   -0.9510    7.2452    0.0000 O   0  0  0  0  0  0  0  0  0  0  0  0
    1.2990    8.5442    0.0000 C   0  0  0  0  0  0  0  0  0  0  0  0
    0.0000    9.2942    0.0000 F   0  0  0  0  0  0  0  0  0  0  0  0
    2.5981    7.7942    0.0000 F   0  0  0  0  0  0  0  0  0  0  0  0
    2.0490    9.8433    0.0000 C   0  0  0  0  0  0  0  0  0  0  0  0
    3.3481    9.0933    0.0000 F   0  0  0  0  0  0  0  0  0  0  0  0
    0.7500   10.5933    0.0000 F   0  0  0  0  0  0  0  0  0  0  0  0
    2.7990   11.1423    0.0000 C   0  0  0  0  0  0  0  0  0  0  0  0
    1.5000   11.8923    0.0000 F   0  0  0  0  0  0  0  0  0  0  0  0
    4.0981   10.3923    0.0000 F   0  0  0  0  0  0  0  0  0  0  0  0
    3.5490   12.4413    0.0000 C   0  0  0  0  0  0  0  0  0  0  0  0
    4.8481   11.6913    0.0000 F   0  0  0  0  0  0  0  0  0  0  0  0
    2.2500   13.1913    0.0000 F   0  0  0  0  0  0  0  0  0  0  0  0
    4.2990   13.7404    0.0000 C   0  0  0  0  0  0  0  0  0  0  0  0
    3.0000   14.4904    0.0000 F   0  0  0  0  0  0  0  0  0  0  0  0
    5.5981   12.9904    0.0000 F   0  0  0  0  0  0  0  0  0  0  0  0
    5.0490   15.0394    0.0000 C   0  0  0  0  0  0  0  0  0  0  0  0
    6.3481   14.2894    0.0000 F   0  0  0  0  0  0  0  0  0  0  0  0
    3.7500   15.7894    0.0000 F   0  0  0  0  0  0  0  0  0  0  0  0
    5.7990   16.3385    0.0000 C   0  0  0  0  0  0  0  0  0  0  0  0
    6.5490   17.6375    0.0000 F   0  0  0  0  0  0  0  0  0  0  0  0
    4.5000   17.0885    0.0000 F   0  0  0  0  0  0  0  0  0  0  0  0
    7.0981   15.5885    0.0000 F   0  0  0  0  0  0  0  0  0  0  0  0
    8.0981    0.0000    0.0000 I   0  0  0  0  0  0  0  0  0  0  0  0
  1  2  1  0
  2  3  1  0
  2  4  1  0
  2  5  1  0
  5  6  1  0
  6  7  1  0
  7  8  1  0
  8  9  1  0
  9 10  2  0
  9 11  1  0
 11 12  1  0
 11 13  1  0
 11 14  1  0
 14 15  1  0
 14 16  1  0
 14 17  1  0
 17 18  1  0
 17 19  1  0
 17 20  1  0
 20 21  1  0
 20 22  1  0
 20 23  1  0
 23 24  1  0
 23 25  1  0
 23 26  1  0
 26 27  1  0
 26 28  1  0
 26 29  1  0
 29 30  1  0
 29 31  1  0
 29 32  1  0
M  CHG  2   2   1  33  -1
M  END
$$$$

     RDKit          2D

 25 24  0  0  0  0  0  0  0  0999 V2000
   -1.2990    0.7500    0.0000 F   0  0  0  0  0  0  0  0  0  0  0  0
    0.0000    0.0000    0.0000 C   0  0  0  0  0  0  0  0  0  0  0  0
   -0.0000   -1.5000    0.0000 F   0  0  0  0  0  0  0  0  0  0  0  0
    1.2990    0.7500    0.0000 C   0  0  0  0  0  0  0  0  0  0  0  0
    1.2990    2.2500    0.0000 F   0  0  0  0  0  0  0  0  0  0  0  0
    2.5981   -0.0000    0.0000 O   0  0  0  0  0  0  0  0  0  0  0  0
    3.8971    0.7500    0.0000 C   0  0  0  0  0  0  0  0  0  0  0  0
    3.1471    2.0490    0.0000 F   0  0  0  0  0  0  0  0  0  0  0  0
    4.6471   -0.5490    0.0000 F   0  0  0  0  0  0  0  0  0  0  0  0
    5.1962    1.5000    0.0000 C   0  0  0  0  0  0  0  0  0  0  0  0
    4.4462    2.7990    0.0000 F   0  0  0  0  0  0  0  0  0  0  0  0
    5.9462    0.2010    0.0000 F   0  0  0  0  0  0  0  0  0  0  0  0
    6.4952    2.2500    0.0000 O   0  0  0  0  0  0  0  0  0  0  0  0
    7.7942    1.5000    0.0000 C   0  0  0  0  0  0  0  0  0  0  0  0
    8.5442    2.7990    0.0000 F   0  0  0  0  0  0  0  0  0  0  0  0
    7.0442    0.2010    0.0000 F   0  0  0  0  0  0  0  0  0  0  0  0
    9.0933    0.7500    0.0000 O   0  0  0  0  0  0  0  0  0  0  0  0
    9.0933   -0.7500    0.0000 C   0  0  0  0  0  0  0  0  0  0  0  0
   10.5933   -0.7500    0.0000 F   0  0  0  0  0  0  0  0  0  0  0  0
    7.5933   -0.7500    0.0000 F   0  0  0  0  0  0  0  0  0  0  0  0
    9.0933   -2.2500    0.0000 O   0  0  0  0  0  0  0  0  0  0  0  0
    7.7942   -3.0000    0.0000 C   0  0  0  0  0  0  0  0  0  0  0  0
    6.4952   -3.7500    0.0000 F   0  0  0  0  0  0  0  0  0  0  0  0
    8.5442   -4.2990    0.0000 F   0  0  0  0  0  0  0  0  0  0  0  0
    7.0442   -1.7010    0.0000 F   0  0  0  0  0  0  0  0  0  0  0  0
  1  2  1  0
  2  3  1  0
  2  4  2  0
  4  5  1  0
  4  6  1  0
  6  7  1  0
  7  8  1  0
  7  9  1  0
  7 10  1  0
 10 11  1  0
 10 12  1  0
 10 13  1  0
 13 14  1  0
 14 15  1  0
 14 16  1  0
 14 17  1  0
 17 18  1  0
 18 19  1  0
 18 20  1  0
 18 21  1  0
 21 22  1  0
 22 23  1  0
 22 24  1  0
 22 25  1  0
M  END
$$$$

     RDKit          2D

 14 13  0  0  0  0  0  0  0  0999 V2000
    0.0000    0.0000    0.0000 C   0  0  0  0  0  0  0  0  0  0  0  0
    1.2990    0.7500    0.0000 C   0  0  0  0  0  0  0  0  0  0  0  0
    2.5981   -0.0000    0.0000 C   0  0  0  0  0  0  0  0  0  0  0  0
    2.5981   -1.5000    0.0000 O   0  0  0  0  0  0  0  0  0  0  0  0
    3.8971   -2.2500    0.0000 C   0  0  0  0  0  0  0  0  0  0  0  0
    5.1962   -1.5000    0.0000 O   0  0  0  0  0  0  0  0  0  0  0  0
    3.8971   -3.7500    0.0000 O   0  0  0  0  0  0  0  0  0  0  0  0
    3.8971    0.7500    0.0000 C   0  0  0  0  0  0  0  0  0  0  0  0
    4.6471   -0.5490    0.0000 F   0  0  0  0  0  0  0  0  0  0  0  0
    3.1471    2.0490    0.0000 F   0  0  0  0  0  0  0  0  0  0  0  0
    5.1962    1.5000    0.0000 C   0  0  0  0  0  0  0  0  0  0  0  0
    6.4952    2.2500    0.0000 F   0  0  0  0  0  0  0  0  0  0  0  0
    4.4462    2.7990    0.0000 F   0  0  0  0  0  0  0  0  0  0  0  0
    5.9462    0.2010    0.0000 F   0  0  0  0  0  0  0  0  0  0  0  0
  1  2  1  0
  2  3  1  0
  3  4  1  0
  4  5  1  0
  5  6  2  0
  5  7  1  0
  3  8  1  0
  8  9  1  0
  8 10  1  0
  8 11  1  0
 11 12  1  0
 11 13  1  0
 11 14  1  0
M  CHG  1   7  -1
M  END
$$$$

     RDKit          2D

 51 50  0  0  0  0  0  0  0  0999 V2000
    0.0000    0.0000    0.0000 C   0  0  0  0  0  0  0  0  0  0  0  0
    1.2990    0.7500    0.0000 C   0  0  0  0  0  0  0  0  0  0  0  0
    2.5981   -0.0000    0.0000 C   0  0  0  0  0  0  0  0  0  0  0  0
    2.5981   -1.5000    0.0000 O   0  0  0  0  0  0  0  0  0  0  0  0
    3.8971    0.7500    0.0000 O   0  0  0  0  0  0  0  0  0  0  0  0
    5.1962   -0.0000    0.0000 C   0  0  0  0  0  0  0  0  0  0  0  0
    6.4952    0.7500    0.0000 C   0  0  0  0  0  0  0  0  0  0  0  0
    7.7942   -0.0000    0.0000 N   0  0  0  0  0  0  0  0  0  0  0  0
    9.0933    0.7500    0.0000 C   0  0  0  0  0  0  0  0  0  0  0  0
    7.7942   -1.5000    0.0000 S   0  0  0  0  0  0  0  0  0  0  0  0
    6.2942   -1.5000    0.0000 O   0  0  0  0  0  0  0  0  0  0  0  0
    9.2942   -1.5000    0.0000 O   0  0  0  0  0  0  0  0  0  0  0  0
    7.7942   -3.0000    0.0000 C   0  0  0  0  0  0  0  0  0  0  0  0
    6.4952   -3.7500    0.0000 C   0  0  0  0  0  0  0  0  0  0  0  0
    6.4952   -5.2500    0.0000 C   0  0  0  0  0  0  0  0  0  0  0  0
    4.9952   -5.2500    0.0000 F   0  0  0  0  0  0  0  0  0  0  0  0
    7.9952   -5.2500    0.0000 F   0  0  0  0  0  0  0  0  0  0  0  0
    6.4952   -6.7500    0.0000 C   0  0  0  0  0  0  0  0  0  0  0  0
    7.9952   -6.7500    0.0000 F   0  0  0  0  0  0  0  0  0  0  0  0
    4.9952   -6.7500    0.0000 F   0  0  0  0  0  0  0  0  0  0  0  0
    6.4952   -8.2500    0.0000 C   0  0  0  0  0  0  0  0  0  0  0  0
    4.9952   -8.2500    0.0000 F   0  0  0  0  0  0  0  0  0  0  0  0
    7.9952   -8.2500    0.0000 F   0  0  0  0  0  0  0  0  0  0  0  0
    6.4952   -9.7500    0.0000 C   0  0  0  0  0  0  0  0  0  0  0  0
    7.9952   -9.7500    0.0000 F   0  0  0  0  0  0  0  0  0  0  0  0
    4.9952   -9.7500    0.0000 F   0  0  0  0  0  0  0  0  0  0  0  0
    6.4952  -11.2500    0.0000 C   0  0  0  0  0  0  0  0  0  0  0  0
    4.9952  -11.2500    0.0000 F   0  0  0  0  0  0  0  0  0  0  0  0
    7.9952  -11.2500    0.0000 F   0  0  0  0  0  0  0  0  0  0  0  0
    6.4952  -12.7500    0.0000 C   0  0  0  0  0  0  0  0  0  0  0  0
    7.9952  -12.7500    0.0000 F   0  0  0  0  0  0  0  0  0  0  0  0
    4.9952  -12.7500    0.0000 F   0  0  0  0  0  0  0  0  0  0  0  0
    6.4952  -14.2500    0.0000 C   0  0  0  0  0  0  0  0  0  0  0  0
    4.9952  -14.2500    0.0000 F   0  0  0  0  0  0  0  0  0  0  0  0
    7.9952  -14.2500    0.0000 F   0  0  0  0  0  0  0  0  0  0  0  0
    6.4952  -15.7500    0.0000 C   0  0  0  0  0  0  0  0  0  0  0  0
    7.9952  -15.7500    0.0000 F   0  0  0  0  0  0  0  0  0  0  0  0
    4.9952  -15.7500    0.0000 F   0  0  0  0  0  0  0  0  0  0  0  0
    6.4952  -17.2500    0.0000 C   0  0  0  0  0  0  0  0  0  0  0  0
    4.9952  -17.2500    0.0000 F   0  0  0  0  0  0  0  0  0  0  0  0
    7.9952  -17.2500    0.0000 F   0  0  0  0  0  0  0  0  0  0  0  0
    6.4952  -18.7500    0.0000 C   0  0  0  0  0  0  0  0  0  0  0  0
    7.9952  -18.7500    0.0000 F   0  0  0  0  0  0  0  0  0  0  0  0
    4.9952  -18.7500    0.0000 F   0  0  0  0  0  0  0  0  0  0  0  0
    6.4952  -20.2500    0.0000 C   0  0  0  0  0  0  0  0  0  0  0  0
    4.9952  -20.2500    0.0000 F   0  0  0  0  0  0  0  0  0  0  0  0
    7.9952  -20.2500    0.0000 F   0  0  0  0  0  0  0  0  0  0  0  0
    6.4952  -21.7500    0.0000 C   0  0  0  0  0  0  0  0  0  0  0  0
    6.4952  -23.2500    0.0000 F   0  0  0  0  0  0  0  0  0  0  0  0
    7.9952  -21.7500    0.0000 F   0  0  0  0  0  0  0  0  0  0  0  0
    4.9952  -21.7500    0.0000 F   0  0  0  0  0  0  0  0  0  0  0  0
  1  2  2  0
  2  3  1  0
  3  4  2  0
  3  5  1  0
  5  6  1  0
  6  7  1  0
  7  8  1  0
  8  9  1  0
  8 10  1  0
 10 11  2  0
 10 12  2  0
 10 13  1  0
 13 14  1  0
 14 15  1  0
 15 16  1  0
 15 17  1  0
 15 18  1  0
 18 19  1  0
 18 20  1  0
 18 21  1  0
 21 22  1  0
 21 23  1  0
 21 24  1  0
 24 25  1  0
 24 26  1  0
 24 27  1  0
 27 28  1  0
 27 29  1  0
 27 30  1  0
 30 31  1  0
 30 32  1  0
 30 33  1  0
 33 34  1  0
 33 35  1  0
 33 36  1  0
 36 37  1  0
 36 38  1  0
 36 39  1  0
 39 40  1  0
 39 41  1  0
 39 42  1  0
 42 43  1  0
 42 44  1  0
 42 45  1  0
 45 46  1  0
 45 47  1  0
 45 48  1  0
 48 49  1  0
 48 50  1  0
 48 51  1  0
M  END
$$$$

     RDKit          2D

 63 62  0  0  0  0  0  0  0  0999 V2000
    0.0000    0.0000    0.0000 C   0  0  0  0  0  0  0  0  0  0  0  0
    1.2990    0.7500    0.0000 C   0  0  0  0  0  0  0  0  0  0  0  0
    2.5981   -0.0000    0.0000 C   0  0  0  0  0  0  0  0  0  0  0  0
    2.5981   -1.5000    0.0000 O   0  0  0  0  0  0  0  0  0  0  0  0
    3.8971    0.7500    0.0000 O   0  0  0  0  0  0  0  0  0  0  0  0
    5.1962   -0.0000    0.0000 C   0  0  0  0  0  0  0  0  0  0  0  0
    6.4952    0.7500    0.0000 C   0  0  0  0  0  0  0  0  0  0  0  0
    7.7942   -0.0000    0.0000 N   0  0  0  0  0  0  0  0  0  0  0  0
    9.0933    0.7500    0.0000 C   0  0  0  0  0  0  0  0  0  0  0  0
    7.7942   -1.5000    0.0000 S   0  0  0  0  0  0  0  0  0  0  0  0
    6.2942   -1.5000    0.0000 O   0  0  0  0  0  0  0  0  0  0  0  0
    9.2942   -1.5000    0.0000 O   0  0  0  0  0  0  0  0  0  0  0  0
    7.7942   -3.0000    0.0000 C   0  0  0  0  0  0  0  0  0  0  0  0
    6.4952   -3.7500    0.0000 C   0  0  0  0  0  0  0  0  0  0  0  0
    6.4952   -5.2500    0.0000 C   0  0  0  0  0  0  0  0  0  0  0  0
    4.9952   -5.2500    0.0000 F   0  0  0  0  0  0  0  0  0  0  0  0
    7.9952   -5.2500    0.0000 F   0  0  0  0  0  0  0  0  0  0  0  0
    6.4952   -6.7500    0.0000 C   0  0  0  0  0  0  0  0  0  0  0  0
    7.9952   -6.7500    0.0000 F   0  0  0  0  0  0  0  0  0  0  0  0
    4.9952   -6.7500    0.0000 F   0  0  0  0  0  0  0  0  0  0  0  0
    6.4952   -8.2500    0.0000 C   0  0  0  0  0  0  0  0  0  0  0  0
    4.9952   -8.2500    0.0000 F   0  0  0  0  0  0  0  0  0  0  0  0
    7.9952   -8.2500    0.0000 F   0  0  0  0  0  0  0  0  0  0  0  0
    6.4952   -9.7500    0.0000 C   0  0  0  0  0  0  0  0  0  0  0  0
    7.9952   -9.7500    0.0000 F   0  0  0  0  0  0  0  0  0  0  0  0
    4.9952   -9.7500    0.0000 F   0  0  0  0  0  0  0  0  0  0  0  0
    6.4952  -11.2500    0.0000 C   0  0  0  0  0  0  0  0  0  0  0  0
    4.9952  -11.2500    0.0000 F   0  0  0  0  0  0  0  0  0  0  0  0
    7.9952  -11.2500    0.0000 F   0  0  0  0  0  0  0  0  0  0  0  0
    6.4952  -12.7500    0.0000 C   0  0  0  0  0  0  0  0  0  0  0  0
    7.9952  -12.7500    0.0000 F   0  0  0  0  0  0  0  0  0  0  0  0
    4.9952  -12.7500    0.0000 F   0  0  0  0  0  0  0  0  0  0  0  0
    6.4952  -14.2500    0.0000 C   0  0  0  0  0  0  0  0  0  0  0  0
    4.9952  -14.2500    0.0000 F   0  0  0  0  0  0  0  0  0  0  0  0
    7.9952  -14.2500    0.0000 F   0  0  0  0  0  0  0  0  0  0  0  0
    6.4952  -15.7500    0.0000 C   0  0  0  0  0  0  0  0  0  0  0  0
    7.9952  -15.7500    0.0000 F   0  0  0  0  0  0  0  0  0  0  0  0
    4.9952  -15.7500    0.0000 F   0  0  0  0  0  0  0  0  0  0  0  0
    6.4952  -17.2500    0.0000 C   0  0  0  0  0  0  0  0  0  0  0  0
    4.9952  -17.2500    0.0000 F   0  0  0  0  0  0  0  0  0  0  0  0
    7.9952  -17.2500    0.0000 F   0  0  0  0  0  0  0  0  0  0  0  0
    6.4952  -18.7500    0.0000 C   0  0  0  0  0  0  0  0  0  0  0  0
    7.9952  -18.7500    0.0000 F   0  0  0  0  0  0  0  0  0  0  0  0
    4.9952  -18.7500    0.0000 F   0  0  0  0  0  0  0  0  0  0  0  0
    6.4952  -20.2500    0.0000 C   0  0  0  0  0  0  0  0  0  0  0  0
    4.9952  -20.2500    0.0000 F   0  0  0  0  0  0  0  0  0  0  0  0
    7.9952  -20.2500    0.0000 F   0  0  0  0  0  0  0  0  0  0  0  0
    6.4952  -21.7500    0.0000 C   0  0  0  0  0  0  0  0  0  0  0  0
    7.9952  -21.7500    0.0000 F   0  0  0  0  0  0  0  0  0  0  0  0
    4.9952  -21.7500    0.0000 F   0  0  0  0  0  0  0  0  0  0  0  0
    6.4952  -23.2500    0.0000 C   0  0  0  0  0  0  0  0  0  0  0  0
    4.9952  -23.2500    0.0000 F   0  0  0  0  0  0  0  0  0  0  0  0
    7.9952  -23.2500    0.0000 F   0  0  0  0  0  0  0  0  0  0  0  0
    6.4952  -24.7500    0.0000 C   0  0  0  0  0  0  0  0  0  0  0  0
    7.9952  -24.7500    0.0000 F   0  0  0  0  0  0  0  0  0  0  0  0
    4.9952  -24.7500    0.0000 F   0  0  0  0  0  0  0  0  0  0  0  0
    6.4952  -26.2500    0.0000 C   0  0  0  0  0  0  0  0  0  0  0  0
    4.9952  -26.2500    0.0000 F   0  0  0  0  0  0  0  0  0  0  0  0
    7.9952  -26.2500    0.0000 F   0  0  0  0  0  0  0  0  0  0  0  0
    6.4952  -27.7500    0.0000 C   0  0  0  0  0  0  0  0  0  0  0  0
    6.4952  -29.2500    0.0000 F   0  0  0  0  0  0  0  0  0  0  0  0
    7.9952  -27.7500    0.0000 F   0  0  0  0  0  0  0  0  0  0  0  0
    4.9952  -27.7500    0.0000 F   0  0  0  0  0  0  0  0  0  0  0  0
  1  2  2  0
  2  3  1  0
  3  4  2  0
  3  5  1  0
  5  6  1  0
  6  7  1  0
  7  8  1  0
  8  9  1  0
  8 10  1  0
 10 11  2  0
 10 12  2  0
 10 13  1  0
 13 14  1  0
 14 15  1  0
 15 16  1  0
 15 17  1  0
 15 18  1  0
 18 19  1  0
 18 20  1  0
 18 21  1  0
 21 22  1  0
 21 23  1  0
 21 24  1  0
 24 25  1  0
 24 26  1  0
 24 27  1  0
 27 28  1  0
 27 29  1  0
 27 30  1  0
 30 31  1  0
 30 32  1  0
 30 33  1  0
 33 34  1  0
 33 35  1  0
 33 36  1  0
 36 37  1  0
 36 38  1  0
 36 39  1  0
 39 40  1  0
 39 41  1  0
 39 42  1  0
 42 43  1  0
 42 44  1  0
 42 45  1  0
 45 46  1  0
 45 47  1  0
 45 48  1  0
 48 49  1  0
 48 50  1  0
 48 51  1  0
 51 52  1  0
 51 53  1  0
 51 54  1  0
 54 55  1  0
 54 56  1  0
 54 57  1  0
 57 58  1  0
 57 59  1  0
 57 60  1  0
 60 61  1  0
 60 62  1  0
 60 63  1  0
M  END
$$$$

     RDKit          2D

 23 24  0  0  0  0  0  0  0  0999 V2000
    4.5000    0.0000    0.0000 C   0  0  0  0  0  0  0  0  0  0  0  0
    3.0000    0.0000    0.0000 S   0  0  0  0  0  0  0  0  0  0  0  0
    3.0000    1.5000    0.0000 O   0  0  0  0  0  0  0  0  0  0  0  0
    3.0000   -1.5000    0.0000 O   0  0  0  0  0  0  0  0  0  0  0  0
    1.5000    0.0000    0.0000 N   0  0  0  0  0  0  0  0  0  0  0  0
    0.7500   -1.2990    0.0000 C   0  0  0  0  0  0  0  0  0  0  0  0
   -0.7500   -1.2990    0.0000 C   0  0  0  0  0  0  0  0  0  0  0  0
   -1.5000    0.0000    0.0000 N   0  0  0  0  0  0  0  0  0  0  0  0
   -3.0000    0.0000    0.0000 C   0  0  0  0  0  0  0  0  0  0  0  0
   -3.7500    1.2990    0.0000 C   0  0  0  0  0  0  0  0  0  0  0  0
   -5.2500    1.2990    0.0000 C   0  0  0  0  0  0  0  0  0  0  0  0
   -6.0000    0.0000    0.0000 C   0  0  0  0  0  0  0  0  0  0  0  0
   -7.5000    0.0000    0.0000 O   0  0  0  0  0  0  0  0  0  0  0  0
   -8.2500    1.2990    0.0000 C   0  0  0  0  0  0  0  0  0  0  0  0
   -6.9510    2.0490    0.0000 F   0  0  0  0  0  0  0  0  0  0  0  0
   -9.5490    0.5490    0.0000 F   0  0  0  0  0  0  0  0  0  0  0  0
   -9.0000    2.5981    0.0000 C   0  0  0  0  0  0  0  0  0  0  0  0
   -8.2500    3.8971    0.0000 F   0  0  0  0  0  0  0  0  0  0  0  0
  -10.5000    2.5981    0.0000 F   0  0  0  0  0  0  0  0  0  0  0  0
   -5.2500   -1.2990    0.0000 C   0  0  0  0  0  0  0  0  0  0  0  0
   -3.7500   -1.2990    0.0000 C   0  0  0  0  0  0  0  0  0  0  0  0
   -0.7500    1.2990    0.0000 C   0  0  0  0  0  0  0  0  0  0  0  0
    0.7500    1.2990    0.0000 C   0  0  0  0  0  0  0  0  0  0  0  0
  1  2  1  0
  2  3  2  0
  2  4  2  0
  2  5  1  0
  5  6  1  0
  6  7  1  0
  7  8  1  0
  8  9  1  0
  9 10  2  0
 10 11  1  0
 11 12  2  0
 12 13  1  0
 13 14  1  0
 14 15  1  0
 14 16  1  0
 14 17  1  0
 17 18  1  0
 17 19  1  0
 12 20  1  0
 20 21  2  0
  8 22  1  0
 22 23  1  0
 23  5  1  0
 21  9  1  0
M  END
$$$$

     RDKit          2D

 13 13  0  0  0  0  0  0  0  0999 V2000
    2.7944    2.2981    0.0000 F   0  0  0  0  0  0  0  0  0  0  0  0
    1.8302    1.1491    0.0000 C   0  0  0  0  0  0  0  0  0  0  0  0
    0.6811    2.1132    0.0000 F   0  0  0  0  0  0  0  0  0  0  0  0
    2.8492    0.4874    0.0000 F   0  0  0  0  0  0  0  0  0  0  0  0
    0.8660    0.0000    0.0000 C   0  0  0  0  0  0  0  0  0  0  0  0
    1.8302   -1.1491    0.0000 C   0  0  0  0  0  0  0  0  0  0  0  0
    2.7944   -2.2981    0.0000 F   0  0  0  0  0  0  0  0  0  0  0  0
    2.8492   -0.4874    0.0000 F   0  0  0  0  0  0  0  0  0  0  0  0
    0.9095   -2.1364    0.0000 F   0  0  0  0  0  0  0  0  0  0  0  0
   -0.4330    0.7500    0.0000 O   0  0  0  0  0  0  0  0  0  0  0  0
   -0.4330   -0.7500    0.0000 C   0  0  0  0  0  0  0  0  0  0  0  0
   -0.1294   -2.0654    0.0000 F   0  0  0  0  0  0  0  0  0  0  0  0
   -1.9102   -1.0105    0.0000 F   0  0  0  0  0  0  0  0  0  0  0  0
  1  2  1  0
  2  3  1  0
  2  4  1  0
  2  5  1  0
  5  6  1  0
  6  7  1  0
  6  8  1  0
  6  9  1  0
  5 10  1  0
 10 11  1  0
 11 12  1  0
 11 13  1  0
 11  5  1  0
M  END
$$$$

     RDKit          2D

 10  9  0  0  0  0  0  0  0  0999 V2000
    3.8971    2.2500    0.0000 F   0  0  0  0  0  0  0  0  0  0  0  0
    2.5981    1.5000    0.0000 C   0  0  0  0  0  0  0  0  0  0  0  0
    1.8481    2.7990    0.0000 F   0  0  0  0  0  0  0  0  0  0  0  0
    3.3481    0.2010    0.0000 I   0  0  0  0  0  0  0  0  0  0  0  0
    1.2990    0.7500    0.0000 C   0  0  0  0  0  0  0  0  0  0  0  0
    2.0490   -0.5490    0.0000 F   0  0  0  0  0  0  0  0  0  0  0  0
    0.5490    2.0490    0.0000 F   0  0  0  0  0  0  0  0  0  0  0  0
    0.0000    0.0000    0.0000 C   0  0  0  0  0  0  0  0  0  0  0  0
   -1.2990    0.7500    0.0000 C   0  0  0  0  0  0  0  0  0  0  0  0
   -2.5981    0.0000    0.0000 I   0  0  0  0  0  0  0  0  0  0  0  0
  1  2  1  0
  2  3  1  0
  2  4  1  0
  2  5  1  0
  5  6  1  0
  5  7  1  0
  5  8  1  0
  8  9  1  0
  9 10  1  0
M  END
$$$$

     RDKit          2D

  9  8  0  0  0  0  0  0  0  0999 V2000
   -1.2990    0.7500    0.0000 F   0  0  0  0  0  0  0  0  0  0  0  0
    0.0000    0.0000    0.0000 C   0  0  0  0  0  0  0  0  0  0  0  0
    1.2990    0.7500    0.0000 O   0  0  0  0  0  0  0  0  0  0  0  0
    2.5981   -0.0000    0.0000 C   0  0  0  0  0  0  0  0  0  0  0  0
    1.8481   -1.2990    0.0000 F   0  0  0  0  0  0  0  0  0  0  0  0
    3.3481    1.2990    0.0000 F   0  0  0  0  0  0  0  0  0  0  0  0
    3.8971   -0.7500    0.0000 C   0  0  0  0  0  0  0  0  0  0  0  0
    3.8971   -2.2500    0.0000 F   0  0  0  0  0  0  0  0  0  0  0  0
    5.1962   -0.0000    0.0000 F   0  0  0  0  0  0  0  0  0  0  0  0
  1  2  1  0
  2  3  1  0
  3  4  1  0
  4  5  1  0
  4  6  1  0
  4  7  1  0
  7  8  1  0
  7  9  1  0
M  END
$$$$

     RDKit          2D

 29 31  0  0  0  0  0  0  0  0999 V2000
    2.2500   -3.8971    0.0000 F   0  0  0  0  0  0  0  0  0  0  0  0
    1.5000   -2.5981    0.0000 C   0  0  0  0  0  0  0  0  0  0  0  0
    0.3021   -3.5008    0.0000 F   0  0  0  0  0  0  0  0  0  0  0  0
    2.8448   -2.7159    0.0000 F   0  0  0  0  0  0  0  0  0  0  0  0
    0.7500   -1.2990    0.0000 C   0  0  0  0  0  0  0  0  0  0  0  0
    1.5000    0.0000    0.0000 C   0  0  0  0  0  0  0  0  0  0  0  0
    2.8482    0.6575    0.0000 F   0  0  0  0  0  0  0  0  0  0  0  0
    2.9183   -0.4882    0.0000 F   0  0  0  0  0  0  0  0  0  0  0  0
    0.7500    1.2990    0.0000 C   0  0  0  0  0  0  0  0  0  0  0  0
    1.3361    2.6798    0.0000 F   0  0  0  0  0  0  0  0  0  0  0  0
   -0.7500    1.2990    0.0000 C   0  0  0  0  0  0  0  0  0  0  0  0
   -2.1595    1.8121    0.0000 F   0  0  0  0  0  0  0  0  0  0  0  0
   -0.4895    2.7762    0.0000 F   0  0  0  0  0  0  0  0  0  0  0  0
   -1.5000    0.0000    0.0000 C   0  0  0  0  0  0  0  0  0  0  0  0
   -3.0000    0.0000    0.0000 F   0  0  0  0  0  0  0  0  0  0  0  0
    1.7010   -0.7500    0.0000 C   0  0  0  0  0  0  0  0  0  0  0  0
    2.4362   -1.8822    0.0000 F   0  0  0  0  0  0  0  0  0  0  0  0
    1.0560   -1.2185    0.0000 F   0  0  0  0  0  0  0  0  0  0  0  0
    3.0000   -0.0000    0.0000 C   0  0  0  0  0  0  0  0  0  0  0  0
    4.5000   -0.0000    0.0000 F   0  0  0  0  0  0  0  0  0  0  0  0
    2.2500    1.2990    0.0000 C   0  0  0  0  0  0  0  0  0  0  0  0
    3.6595    1.8121    0.0000 F   0  0  0  0  0  0  0  0  0  0  0  0
    2.1715    2.7970    0.0000 F   0  0  0  0  0  0  0  0  0  0  0  0
    2.2500   -1.2990    0.0000 C   0  0  0  0  0  0  0  0  0  0  0  0
    2.3547   -2.7954    0.0000 F   0  0  0  0  0  0  0  0  0  0  0  0
    3.7116   -1.6364    0.0000 F   0  0  0  0  0  0  0  0  0  0  0  0
   -0.7500   -1.2990    0.0000 C   0  0  0  0  0  0  0  0  0  0  0  0
   -0.6715   -2.7970    0.0000 F   0  0  0  0  0  0  0  0  0  0  0  0
   -2.1595   -1.8121    0.0000 F   0  0  0  0  0  0  0  0  0  0  0  0
  1  2  1  0
  2  3  1  0
  2  4  1  0
  2  5  1  0
  5  6  1  0
  6  7  1  0
  6  8  1  0
  6  9  1  0
  9 10  1  0
  9 11  1  0
 11 12  1  0
 11 13  1  0
 11 14  1  0
 14 15  1  0
 14 16  1  0
 16 17  1  0
 16 18  1  0
 16 19  1  0
 19 20  1  0
 19 21  1  0
 21 22  1  0
 21 23  1  0
 19 24  1  0
 24 25  1  0
 24 26  1  0
 14 27  1  0
 27 28  1  0
 27 29  1  0
 24  5  1  0
 27  5  1  0
 21  9  1  0
M  END
$$$$

     RDKit          2D

  7  6  0  0  0  0  0  0  0  0999 V2000
    0.0000    0.0000    0.0000 C   0  0  0  0  0  0  0  0  0  0  0  0
    1.2990    0.7500    0.0000 C   0  0  0  0  0  0  0  0  0  0  0  0
    2.0490   -0.5490    0.0000 F   0  0  0  0  0  0  0  0  0  0  0  0
    0.5490    2.0490    0.0000 F   0  0  0  0  0  0  0  0  0  0  0  0
    2.5981    1.5000    0.0000 C   0  0  0  0  0  0  0  0  0  0  0  0
    2.5981    3.0000    0.0000 F   0  0  0  0  0  0  0  0  0  0  0  0
    3.8971    0.7500    0.0000 F   0  0  0  0  0  0  0  0  0  0  0  0
  1  2  1  0
  2  3  1  0
  2  4  1  0
  2  5  1  0
  5  6  1  0
  5  7  1  0
M  END
$$$$

     RDKit          2D

 12 11  0  0  0  0  0  0  0  0999 V2000
    0.0000    0.0000    0.0000 C   0  0  0  0  0  0  0  0  0  0  0  0
    1.2990    0.7500    0.0000 C   0  0  0  0  0  0  0  0  0  0  0  0
    1.2990    2.2500    0.0000 F   0  0  0  0  0  0  0  0  0  0  0  0
    2.5981   -0.0000    0.0000 C   0  0  0  0  0  0  0  0  0  0  0  0
    3.3481    1.2990    0.0000 F   0  0  0  0  0  0  0  0  0  0  0  0
    1.8481   -1.2990    0.0000 F   0  0  0  0  0  0  0  0  0  0  0  0
    3.8971   -0.7500    0.0000 C   0  0  0  0  0  0  0  0  0  0  0  0
    4.6471    0.5490    0.0000 F   0  0  0  0  0  0  0  0  0  0  0  0
    3.1471   -2.0490    0.0000 F   0  0  0  0  0  0  0  0  0  0  0  0
    5.1962   -1.5000    0.0000 C   0  0  0  0  0  0  0  0  0  0  0  0
    6.4952   -0.7500    0.0000 F   0  0  0  0  0  0  0  0  0  0  0  0
    5.1962   -3.0000    0.0000 F   0  0  0  0  0  0  0  0  0  0  0  0
  1  2  2  0
  2  3  1  0
  2  4  1  0
  4  5  1  0
  4  6  1  0
  4  7  1  0
  7  8  1  0
  7  9  1  0
  7 10  1  0
 10 11  1  0
 10 12  1  0
M  END
$$$$

     RDKit          2D

 36 36  0  0  0  0  0  0  0  0999 V2000
    1.9598    0.0000    0.0000 C   0  0  0  0  0  0  0  0  0  0  0  0
    1.3858   -1.3858    0.0000 C   0  0  0  0  0  0  0  0  0  0  0  0
   -0.0000   -1.9598    0.0000 C   0  0  0  0  0  0  0  0  0  0  0  0
   -1.3858   -1.3858    0.0000 C   0  0  0  0  0  0  0  0  0  0  0  0
   -1.9598    0.0000    0.0000 C   0  0  0  0  0  0  0  0  0  0  0  0
   -1.3858    1.3858    0.0000 C   0  0  0  0  0  0  0  0  0  0  0  0
    0.0000    1.9598    0.0000 C   0  0  0  0  0  0  0  0  0  0  0  0
    1.3858    1.3858    0.0000 C   0  0  0  0  0  0  0  0  0  0  0  0
    9.4126   -0.0000    0.0000 C   0  0  0  0  0  0  0  0  0  0  0  0
    7.9126   -0.0000    0.0000 C   0  0  0  0  0  0  0  0  0  0  0  0
    7.0309    1.2135    0.0000 C   0  0  0  0  0  0  0  0  0  0  0  0
    5.6044    0.7500    0.0000 C   0  0  0  0  0  0  0  0  0  0  0  0
    5.6044   -0.7500    0.0000 C   0  0  0  0  0  0  0  0  0  0  0  0
    4.4236   -1.4045    0.0000 C   0  0  0  0  0  0  0  0  0  0  0  0
    7.0309   -1.2135    0.0000 P   0  0  0  0  0  0  0  0  0  0  0  0
    7.4945   -2.6401    0.0000 C   0  0  0  0  0  0  0  0  0  0  0  0
    6.8135   -3.9766    0.0000 C   0  0  0  0  0  0  0  0  0  0  0  0
    5.3869   -4.4401    0.0000 P   0  0  0  0  0  0  0  0  0  0  0  0
    4.9234   -5.8667    0.0000 C   0  0  0  0  0  0  0  0  0  0  0  0
    5.8050   -7.0803    0.0000 C   0  0  0  0  0  0  0  0  0  0  0  0
    3.4234   -5.8667    0.0000 C   0  0  0  0  0  0  0  0  0  0  0  0
    2.9598   -4.4401    0.0000 C   0  0  0  0  0  0  0  0  0  0  0  0
    4.1734   -3.5585    0.0000 C   0  0  0  0  0  0  0  0  0  0  0  0
    4.0088   -2.2185    0.0000 C   0  0  0  0  0  0  0  0  0  0  0  0
    8.1500   -4.6576    0.0000 C   0  0  0  0  0  0  0  0  0  0  0  0
    9.4865   -5.3386    0.0000 F   0  0  0  0  0  0  0  0  0  0  0  0
    7.4690   -5.9941    0.0000 F   0  0  0  0  0  0  0  0  0  0  0  0
    8.8310   -3.3211    0.0000 C   0  0  0  0  0  0  0  0  0  0  0  0
    9.5120   -1.9846    0.0000 F   0  0  0  0  0  0  0  0  0  0  0  0
   10.1675   -4.0021    0.0000 F   0  0  0  0  0  0  0  0  0  0  0  0
    1.5000    4.4598    0.0000 F   0  0  0  0  0  0  0  0  0  0  0  0
    0.0000    4.4598    0.0000 B   0  0  0  0  0  0  0  0  0  0  0  0
   -1.5000    4.4598    0.0000 F   0  0  0  0  0  0  0  0  0  0  0  0
    0.0000    5.9598    0.0000 F   0  0  0  0  0  0  0  0  0  0  0  0
   -0.0000    2.9598    0.0000 F   0  0  0  0  0  0  0  0  0  0  0  0
    0.0000    6.9598    0.0000 Rh  0  0  0  0  0 15  0  0  0  0  0  0
  1  2  2  0
  2  3  1  0
  3  4  1  0
  4  5  1  0
  5  6  2  0
  6  7  1  0
  7  8  1  0
 10  9  1  1
 10 11  1  0
 11 12  1  0
 12 13  1  0
 13 14  1  6
 13 15  1  0
 15 16  1  0
 16 17  2  0
 17 18  1  0
 18 19  1  0
 19 20  1  6
 19 21  1  0
 21 22  1  0
 22 23  1  0
 23 24  1  1
 17 25  1  0
 25 26  1  0
 25 27  1  0
 25 28  1  0
 28 29  1  0
 28 30  1  0
 31 32  1  0
 32 33  1  0
 32 34  1  0
 32 35  1  0
  8  1  1  0
 15 10  1  0
 28 16  1  0
 23 18  1  0
M  CHG  1  32  -1
M  END
$$$$

     RDKit          2D

 53 58  0  0  0  0  0  0  0  0999 V2000
    4.4918   -5.3529    0.0000 C   0  0  0  0  0  0  0  0  0  0  0  0
    3.0000   -5.1962    0.0000 C   0  0  0  0  0  0  0  0  0  0  0  0
    3.7500   -3.8971    0.0000 C   0  0  0  0  0  0  0  0  0  0  0  0
    3.0000   -2.5981    0.0000 C   0  0  0  0  0  0  0  0  0  0  0  0
    1.5000   -2.5981    0.0000 C   0  0  0  0  0  0  0  0  0  0  0  0
    0.7500   -1.2990    0.0000 C   0  0  0  0  0  0  0  0  0  0  0  0
    1.5000    0.0000    0.0000 C   0  0  0  0  0  0  0  0  0  0  0  0
    0.7500    1.2990    0.0000 C   0  0  0  0  0  0  0  0  0  0  0  0
   -0.7500    1.2990    0.0000 C   0  0  0  0  0  0  0  0  0  0  0  0
   -1.5000    2.5981    0.0000 O   0  0  0  0  0  0  0  0  0  0  0  0
   -0.7500    3.8971    0.0000 C   0  0  0  0  0  0  0  0  0  0  0  0
    0.7500    3.8971    0.0000 C   0  0  0  0  0  0  0  0  0  0  0  0
    1.5000    5.1962    0.0000 C   0  0  0  0  0  0  0  0  0  0  0  0
    0.7500    6.4952    0.0000 C   0  0  0  0  0  0  0  0  0  0  0  0
   -0.7500    6.4952    0.0000 C   0  0  0  0  0  0  0  0  0  0  0  0
   -1.5000    5.1962    0.0000 O   0  0  0  0  0  0  0  0  0  0  0  0
   -1.5000    0.0000    0.0000 C   0  0  0  0  0  0  0  0  0  0  0  0
   -0.7500   -1.2990    0.0000 C   0  0  0  0  0  0  0  0  0  0  0  0
   -1.5000   -2.5981    0.0000 C   0  0  0  0  0  0  0  0  0  0  0  0
   -3.0000   -2.5981    0.0000 O   0  0  0  0  0  0  0  0  0  0  0  0
   -0.7500   -3.8971    0.0000 C   0  0  0  0  0  0  0  0  0  0  0  0
   -1.5000   -5.1962    0.0000 C   0  0  0  0  0  0  0  0  0  0  0  0
   -3.0000   -5.1962    0.0000 C   0  0  0  0  0  0  0  0  0  0  0  0
   -3.7500   -6.4952    0.0000 C   0  0  0  0  0  0  0  0  0  0  0  0
   -5.2500   -6.4952    0.0000 C   0  0  0  0  0  0  0  0  0  0  0  0
   -6.0000   -7.7942    0.0000 C   0  0  0  0  0  0  0  0  0  0  0  0
   -7.5000   -7.7942    0.0000 C   0  0  0  0  0  0  0  0  0  0  0  0
   -8.2500   -9.0933    0.0000 C   0  0  0  0  0  0  0  0  0  0  0  0
   -9.7500   -9.0933    0.0000 C   0  0  0  0  0  0  0  0  0  0  0  0
  -10.5000  -10.3923    0.0000 C   0  0  0  0  0  0  0  0  0  0  0  0
  -12.0000  -10.3923    0.0000 S   0  0  0  0  0  0  0  0  0  0  0  0
  -12.7500  -11.6913    0.0000 C   0  0  0  0  0  0  0  0  0  0  0  0
  -14.2500  -11.6913    0.0000 C   0  0  0  0  0  0  0  0  0  0  0  0
  -15.0000  -12.9904    0.0000 C   0  0  0  0  0  0  0  0  0  0  0  0
  -16.5000  -12.9904    0.0000 C   0  0  0  0  0  0  0  0  0  0  0  0
  -16.5000  -14.4904    0.0000 F   0  0  0  0  0  0  0  0  0  0  0  0
  -16.5000  -11.4904    0.0000 F   0  0  0  0  0  0  0  0  0  0  0  0
  -18.0000  -12.9904    0.0000 C   0  0  0  0  0  0  0  0  0  0  0  0
  -19.5000  -12.9904    0.0000 F   0  0  0  0  0  0  0  0  0  0  0  0
  -18.0000  -11.4904    0.0000 F   0  0  0  0  0  0  0  0  0  0  0  0
  -18.0000  -14.4904    0.0000 F   0  0  0  0  0  0  0  0  0  0  0  0
    0.7500   -3.8971    0.0000 C   0  0  0  0  0  0  0  0  0  0  0  0
    1.5000   -5.1962    0.0000 C   0  0  0  0  0  0  0  0  0  0  0  0
    1.0365   -6.6227    0.0000 C   0  0  0  0  0  0  0  0  0  0  0  0
    2.2500   -7.5044    0.0000 C   0  0  0  0  0  0  0  0  0  0  0  0
    3.4635   -6.6227    0.0000 C   0  0  0  0  0  0  0  0  0  0  0  0
    4.8901   -7.0863    0.0000 O   0  0  0  0  0  0  0  0  0  0  0  0
    5.2020   -8.5535    0.0000 C   0  0  0  0  0  0  0  0  0  0  0  0
    4.0873   -9.5572    0.0000 C   0  0  0  0  0  0  0  0  0  0  0  0
    4.3991  -11.0244    0.0000 C   0  0  0  0  0  0  0  0  0  0  0  0
    5.8257  -11.4879    0.0000 C   0  0  0  0  0  0  0  0  0  0  0  0
    6.9404  -10.4842    0.0000 C   0  0  0  0  0  0  0  0  0  0  0  0
    6.6286   -9.0170    0.0000 O   0  0  0  0  0  0  0  0  0  0  0  0
  2  1  1  1
  2  3  1  0
  3  4  1  0
  5  4  1  1
  5  6  1  0
  6  7  2  0
  7  8  1  0
  8  9  2  0
  9 10  1  0
 10 11  1  0
 11 12  1  0
 12 13  1  0
 13 14  1  0
 14 15  1  0
 15 16  1  0
  9 17  1  0
 17 18  2  0
 18 19  1  0
 19 20  2  0
 19 21  1  0
 21 22  1  6
 22 23  1  0
 23 24  1  0
 24 25  1  0
 25 26  1  0
 26 27  1  0
 27 28  1  0
 28 29  1  0
 29 30  1  0
 30 31  1  0
 31 32  1  0
 32 33  1  0
 33 34  1  0
 34 35  1  0
 35 36  1  0
 35 37  1  0
 35 38  1  0
 38 39  1  0
 38 40  1  0
 38 41  1  0
 42 21  1  6
 42 43  1  0
 43 44  1  1
 44 45  1  0
 45 46  1  0
 46 47  1  1
 47 48  1  0
 48 49  1  0
 49 50  1  0
 50 51  1  0
 51 52  1  0
 52 53  1  0
 43  2  1  0
 53 48  1  0
 46  2  1  0
 42  5  1  0
 18  6  1  0
 16 11  1  0
M  END
$$$$

     RDKit          2D

 31 30  0  0  0  0  0  0  0  0999 V2000
    0.0000    0.0000    0.0000 C   0  0  0  0  0  0  0  0  0  0  0  0
    1.2990    0.7500    0.0000 C   0  0  0  0  0  0  0  0  0  0  0  0
    2.5981   -0.0000    0.0000 O   0  0  0  0  0  0  0  0  0  0  0  0
    3.8971    0.7500    0.0000 Si  0  0  0  0  0  4  0  0  0  0  0  0
    5.1962    1.5000    0.0000 C   0  0  0  0  0  0  0  0  0  0  0  0
    5.1962    3.0000    0.0000 C   0  0  0  0  0  0  0  0  0  0  0  0
    6.4952    3.7500    0.0000 C   0  0  0  0  0  0  0  0  0  0  0  0
    5.7452    5.0490    0.0000 F   0  0  0  0  0  0  0  0  0  0  0  0
    7.2452    2.4510    0.0000 F   0  0  0  0  0  0  0  0  0  0  0  0
    7.7942    4.5000    0.0000 C   0  0  0  0  0  0  0  0  0  0  0  0
    8.5442    3.2010    0.0000 F   0  0  0  0  0  0  0  0  0  0  0  0
    7.0442    5.7990    0.0000 F   0  0  0  0  0  0  0  0  0  0  0  0
    9.0933    5.2500    0.0000 C   0  0  0  0  0  0  0  0  0  0  0  0
    8.3433    6.5490    0.0000 F   0  0  0  0  0  0  0  0  0  0  0  0
    9.8433    3.9510    0.0000 F   0  0  0  0  0  0  0  0  0  0  0  0
   10.3923    6.0000    0.0000 C   0  0  0  0  0  0  0  0  0  0  0  0
   11.1423    4.7010    0.0000 F   0  0  0  0  0  0  0  0  0  0  0  0
    9.6423    7.2990    0.0000 F   0  0  0  0  0  0  0  0  0  0  0  0
   11.6913    6.7500    0.0000 C   0  0  0  0  0  0  0  0  0  0  0  0
   10.9413    8.0490    0.0000 F   0  0  0  0  0  0  0  0  0  0  0  0
   12.4413    5.4510    0.0000 F   0  0  0  0  0  0  0  0  0  0  0  0
   12.9904    7.5000    0.0000 C   0  0  0  0  0  0  0  0  0  0  0  0
   14.2894    8.2500    0.0000 F   0  0  0  0  0  0  0  0  0  0  0  0
   13.7404    6.2010    0.0000 F   0  0  0  0  0  0  0  0  0  0  0  0
   12.2404    8.7990    0.0000 F   0  0  0  0  0  0  0  0  0  0  0  0
    3.1471    2.0490    0.0000 O   0  0  0  0  0  0  0  0  0  0  0  0
    3.8971    3.3481    0.0000 C   0  0  0  0  0  0  0  0  0  0  0  0
    3.1471    4.6471    0.0000 C   0  0  0  0  0  0  0  0  0  0  0  0
    4.6471   -0.5490    0.0000 O   0  0  0  0  0  0  0  0  0  0  0  0
    6.1471   -0.5490    0.0000 C   0  0  0  0  0  0  0  0  0  0  0  0
    6.8971   -1.8481    0.0000 C   0  0  0  0  0  0  0  0  0  0  0  0
  1  2  1  0
  2  3  1  0
  3  4  1  0
  4  5  1  0
  5  6  1  0
  6  7  1  0
  7  8  1  0
  7  9  1  0
  7 10  1  0
 10 11  1  0
 10 12  1  0
 10 13  1  0
 13 14  1  0
 13 15  1  0
 13 16  1  0
 16 17  1  0
 16 18  1  0
 16 19  1  0
 19 20  1  0
 19 21  1  0
 19 22  1  0
 22 23  1  0
 22 24  1  0
 22 25  1  0
  4 26  1  0
 26 27  1  0
 27 28  1  0
  4 29  1  0
 29 30  1  0
 30 31  1  0
M  END
$$$$

     RDKit          2D

 23 22  0  0  0  0  0  0  0  0999 V2000
   -1.5000    0.0000    0.0000 F   0  0  0  0  0  0  0  0  0  0  0  0
    0.0000    0.0000    0.0000 C   0  0  0  0  0  0  0  0  0  0  0  0
    0.0000    1.5000    0.0000 Cl  0  0  0  0  0  0  0  0  0  0  0  0
   -0.0000   -1.5000    0.0000 I   0  0  0  0  0  0  0  0  0  0  0  0
    1.5000    0.0000    0.0000 C   0  0  0  0  0  0  0  0  0  0  0  0
    1.5000    1.5000    0.0000 F   0  0  0  0  0  0  0  0  0  0  0  0
    1.5000   -1.5000    0.0000 F   0  0  0  0  0  0  0  0  0  0  0  0
    3.0000    0.0000    0.0000 C   0  0  0  0  0  0  0  0  0  0  0  0
    3.0000   -1.5000    0.0000 F   0  0  0  0  0  0  0  0  0  0  0  0
    3.0000    1.5000    0.0000 Cl  0  0  0  0  0  0  0  0  0  0  0  0
    4.5000    0.0000    0.0000 C   0  0  0  0  0  0  0  0  0  0  0  0
    4.5000    1.5000    0.0000 F   0  0  0  0  0  0  0  0  0  0  0  0
    4.5000   -1.5000    0.0000 F   0  0  0  0  0  0  0  0  0  0  0  0
    6.0000    0.0000    0.0000 C   0  0  0  0  0  0  0  0  0  0  0  0
    6.0000    1.5000    0.0000 F   0  0  0  0  0  0  0  0  0  0  0  0
    6.0000   -1.5000    0.0000 Cl  0  0  0  0  0  0  0  0  0  0  0  0
    7.5000    0.0000    0.0000 C   0  0  0  0  0  0  0  0  0  0  0  0
    7.5000   -1.5000    0.0000 F   0  0  0  0  0  0  0  0  0  0  0  0
    7.5000    1.5000    0.0000 F   0  0  0  0  0  0  0  0  0  0  0  0
    9.0000    0.0000    0.0000 C   0  0  0  0  0  0  0  0  0  0  0  0
   10.5000    0.0000    0.0000 Cl  0  0  0  0  0  0  0  0  0  0  0  0
    9.0000    1.5000    0.0000 Cl  0  0  0  0  0  0  0  0  0  0  0  0
    9.0000   -1.5000    0.0000 Cl  0  0  0  0  0  0  0  0  0  0  0  0
  1  2  1  0
  2  3  1  0
  2  4  1  0
  2  5  1  0
  5  6  1  0
  5  7  1  0
  5  8  1  0
  8  9  1  0
  8 10  1  0
  8 11  1  0
 11 12  1  0
 11 13  1  0
 11 14  1  0
 14 15  1  0
 14 16  1  0
 14 17  1  0
 17 18  1  0
 17 19  1  0
 17 20  1  0
 20 21  1  0
 20 22  1  0
 20 23  1  0
M  END
$$$$

     RDKit          2D

 28 28  0  0  0  0  0  0  0  0999 V2000
    3.0000    0.0000    0.0000 C   0  0  0  0  0  0  0  0  0  0  0  0
    1.5000    0.0000    0.0000 C   0  0  0  0  0  0  0  0  0  0  0  0
    0.7500   -1.2990    0.0000 C   0  0  0  0  0  0  0  0  0  0  0  0
   -0.7500   -1.2990    0.0000 C   0  0  0  0  0  0  0  0  0  0  0  0
   -1.5000    0.0000    0.0000 C   0  0  0  0  0  0  0  0  0  0  0  0
   -3.0000    0.0000    0.0000 C   0  0  0  0  0  0  0  0  0  0  0  0
   -3.7500   -1.2990    0.0000 O   0  0  0  0  0  0  0  0  0  0  0  0
   -3.7500    1.2990    0.0000 C   0  0  0  0  0  0  0  0  0  0  0  0
   -5.0490    0.5490    0.0000 F   0  0  0  0  0  0  0  0  0  0  0  0
   -2.4510    2.0490    0.0000 F   0  0  0  0  0  0  0  0  0  0  0  0
   -4.5000    2.5981    0.0000 C   0  0  0  0  0  0  0  0  0  0  0  0
   -3.2010    3.3481    0.0000 F   0  0  0  0  0  0  0  0  0  0  0  0
   -5.7990    1.8481    0.0000 F   0  0  0  0  0  0  0  0  0  0  0  0
   -5.2500    3.8971    0.0000 C   0  0  0  0  0  0  0  0  0  0  0  0
   -6.5490    3.1471    0.0000 F   0  0  0  0  0  0  0  0  0  0  0  0
   -3.9510    4.6471    0.0000 F   0  0  0  0  0  0  0  0  0  0  0  0
   -6.0000    5.1962    0.0000 C   0  0  0  0  0  0  0  0  0  0  0  0
   -4.7010    5.9462    0.0000 F   0  0  0  0  0  0  0  0  0  0  0  0
   -7.2990    4.4462    0.0000 F   0  0  0  0  0  0  0  0  0  0  0  0
   -6.7500    6.4952    0.0000 C   0  0  0  0  0  0  0  0  0  0  0  0
   -8.0490    5.7452    0.0000 F   0  0  0  0  0  0  0  0  0  0  0  0
   -5.4510    7.2452    0.0000 F   0  0  0  0  0  0  0  0  0  0  0  0
   -7.5000    7.7942    0.0000 C   0  0  0  0  0  0  0  0  0  0  0  0
   -8.2500    9.0933    0.0000 F   0  0  0  0  0  0  0  0  0  0  0  0
   -6.2010    8.5442    0.0000 F   0  0  0  0  0  0  0  0  0  0  0  0
   -8.7990    7.0442    0.0000 F   0  0  0  0  0  0  0  0  0  0  0  0
   -0.7500    1.2990    0.0000 C   0  0  0  0  0  0  0  0  0  0  0  0
    0.7500    1.2990    0.0000 C   0  0  0  0  0  0  0  0  0  0  0  0
  1  2  1  0
  2  3  2  0
  3  4  1  0
  4  5  2  0
  5  6  1  0
  6  7  2  0
  6  8  1  0
  8  9  1  0
  8 10  1  0
  8 11  1  0
 11 12  1  0
 11 13  1  0
 11 14  1  0
 14 15  1  0
 14 16  1  0
 14 17  1  0
 17 18  1  0
 17 19  1  0
 17 20  1  0
 20 21  1  0
 20 22  1  0
 20 23  1  0
 23 24  1  0
 23 25  1  0
 23 26  1  0
  5 27  1  0
 27 28  2  0
 28  2  1  0
M  END
$$$$

     RDKit          2D

 32 32  0  0  0  0  0  0  0  0999 V2000
    5.2500   -1.2990    0.0000 C   0  0  0  0  0  0  0  0  0  0  0  0
    3.7500   -1.2990    0.0000 O   0  0  0  0  0  0  0  0  0  0  0  0
    3.0000    0.0000    0.0000 C   0  0  0  0  0  0  0  0  0  0  0  0
    3.7500    1.2990    0.0000 O   0  0  0  0  0  0  0  0  0  0  0  0
    1.5000    0.0000    0.0000 C   0  0  0  0  0  0  0  0  0  0  0  0
    0.7500   -1.2990    0.0000 C   0  0  0  0  0  0  0  0  0  0  0  0
   -0.7500   -1.2990    0.0000 C   0  0  0  0  0  0  0  0  0  0  0  0
   -1.5000    0.0000    0.0000 C   0  0  0  0  0  0  0  0  0  0  0  0
   -3.0000    0.0000    0.0000 C   0  0  0  0  0  0  0  0  0  0  0  0
   -3.0000    1.5000    0.0000 F   0  0  0  0  0  0  0  0  0  0  0  0
   -3.0000   -1.5000    0.0000 F   0  0  0  0  0  0  0  0  0  0  0  0
   -4.5000    0.0000    0.0000 C   0  0  0  0  0  0  0  0  0  0  0  0
   -4.5000   -1.5000    0.0000 F   0  0  0  0  0  0  0  0  0  0  0  0
   -4.5000    1.5000    0.0000 F   0  0  0  0  0  0  0  0  0  0  0  0
   -6.0000    0.0000    0.0000 C   0  0  0  0  0  0  0  0  0  0  0  0
   -6.0000    1.5000    0.0000 F   0  0  0  0  0  0  0  0  0  0  0  0
   -6.0000   -1.5000    0.0000 F   0  0  0  0  0  0  0  0  0  0  0  0
   -7.5000    0.0000    0.0000 C   0  0  0  0  0  0  0  0  0  0  0  0
   -7.5000   -1.5000    0.0000 F   0  0  0  0  0  0  0  0  0  0  0  0
   -7.5000    1.5000    0.0000 F   0  0  0  0  0  0  0  0  0  0  0  0
   -9.0000    0.0000    0.0000 C   0  0  0  0  0  0  0  0  0  0  0  0
   -9.0000    1.5000    0.0000 F   0  0  0  0  0  0  0  0  0  0  0  0
   -9.0000   -1.5000    0.0000 F   0  0  0  0  0  0  0  0  0  0  0  0
  -10.5000    0.0000    0.0000 C   0  0  0  0  0  0  0  0  0  0  0  0
  -10.5000   -1.5000    0.0000 F   0  0  0  0  0  0  0  0  0  0  0  0
  -10.5000    1.5000    0.0000 F   0  0  0  0  0  0  0  0  0  0  0  0
  -12.0000    0.0000    0.0000 C   0  0  0  0  0  0  0  0  0  0  0  0
  -13.5000    0.0000    0.0000 F   0  0  0  0  0  0  0  0  0  0  0  0
  -12.0000    1.5000    0.0000 F   0  0  0  0  0  0  0  0  0  0  0  0
  -12.0000   -1.5000    0.0000 F   0  0  0  0  0  0  0  0  0  0  0  0
   -0.7500    1.2990    0.0000 C   0  0  0  0  0  0  0  0  0  0  0  0
    0.7500    1.2990    0.0000 C   0  0  0  0  0  0  0  0  0  0  0  0
  1  2  1  0
  2  3  1  0
  3  4  2  0
  3  5  1  0
  5  6  1  0
  6  7  1  0
  7  8  1  0
  8  9  1  0
  9 10  1  0
  9 11  1  0
  9 12  1  0
 12 13  1  0
 12 14  1  0
 12 15  1  0
 15 16  1  0
 15 17  1  0
 15 18  1  0
 18 19  1  0
 18 20  1  0
 18 21  1  0
 21 22  1  0
 21 23  1  0
 21 24  1  0
 24 25  1  0
 24 26  1  0
 24 27  1  0
 27 28  1  0
 27 29  1  0
 27 30  1  0
  8 31  1  0
 31 32  1  0
 32  5  1  0
M  END
$$$$

     RDKit          2D

 16 16  0  0  0  0  0  0  0  0999 V2000
    3.0000    0.0000    0.0000 O   0  0  0  0  0  0  0  0  0  0  0  0
    1.5000    0.0000    0.0000 C   0  0  0  0  0  0  0  0  0  0  0  0
    0.7500   -1.2990    0.0000 C   0  0  0  0  0  0  0  0  0  0  0  0
   -0.7500   -1.2990    0.0000 C   0  0  0  0  0  0  0  0  0  0  0  0
   -1.5000    0.0000    0.0000 C   0  0  0  0  0  0  0  0  0  0  0  0
   -3.0000    0.0000    0.0000 O   0  0  0  0  0  0  0  0  0  0  0  0
   -3.7500    1.2990    0.0000 C   0  0  0  0  0  0  0  0  0  0  0  0
   -2.4510    2.0490    0.0000 F   0  0  0  0  0  0  0  0  0  0  0  0
   -5.0490    0.5490    0.0000 F   0  0  0  0  0  0  0  0  0  0  0  0
   -4.5000    2.5981    0.0000 C   0  0  0  0  0  0  0  0  0  0  0  0
   -5.2500    3.8971    0.0000 F   0  0  0  0  0  0  0  0  0  0  0  0
   -3.2010    3.3481    0.0000 F   0  0  0  0  0  0  0  0  0  0  0  0
   -5.7990    1.8481    0.0000 Cl  0  0  0  0  0  0  0  0  0  0  0  0
   -0.7500    1.2990    0.0000 C   0  0  0  0  0  0  0  0  0  0  0  0
    0.7500    1.2990    0.0000 C   0  0  0  0  0  0  0  0  0  0  0  0
    1.5000    2.5981    0.0000 Cl  0  0  0  0  0  0  0  0  0  0  0  0
  1  2  1  0
  2  3  2  0
  3  4  1  0
  4  5  2  0
  5  6  1  0
  6  7  1  0
  7  8  1  0
  7  9  1  0
  7 10  1  0
 10 11  1  0
 10 12  1  0
 10 13  1  0
  5 14  1  0
 14 15  2  0
 15 16  1  0
 15  2  1  0
M  END
$$$$

     RDKit          2D

 13 12  0  0  0  0  0  0  0  0999 V2000
   -1.2990    0.7500    0.0000 F   0  0  0  0  0  0  0  0  0  0  0  0
    0.0000    0.0000    0.0000 C   0  0  0  0  0  0  0  0  0  0  0  0
   -0.0000   -1.5000    0.0000 F   0  0  0  0  0  0  0  0  0  0  0  0
    1.2990    0.7500    0.0000 C   0  0  0  0  0  0  0  0  0  0  0  0
    1.2990    2.2500    0.0000 F   0  0  0  0  0  0  0  0  0  0  0  0
    2.5981   -0.0000    0.0000 O   0  0  0  0  0  0  0  0  0  0  0  0
    3.8971    0.7500    0.0000 C   0  0  0  0  0  0  0  0  0  0  0  0
    3.1471    2.0490    0.0000 F   0  0  0  0  0  0  0  0  0  0  0  0
    4.6471   -0.5490    0.0000 F   0  0  0  0  0  0  0  0  0  0  0  0
    5.1962    1.5000    0.0000 C   0  0  0  0  0  0  0  0  0  0  0  0
    6.4952    2.2500    0.0000 F   0  0  0  0  0  0  0  0  0  0  0  0
    4.4462    2.7990    0.0000 F   0  0  0  0  0  0  0  0  0  0  0  0
    5.9462    0.2010    0.0000 F   0  0  0  0  0  0  0  0  0  0  0  0
  1  2  1  0
  2  3  1  0
  2  4  2  0
  4  5  1  0
  4  6  1  0
  6  7  1  0
  7  8  1  0
  7  9  1  0
  7 10  1  0
 10 11  1  0
 10 12  1  0
 10 13  1  0
M  END
$$$$

     RDKit          2D

 27 26  0  0  0  0  0  0  0  0999 V2000
    0.0000    0.0000    0.0000 C   0  0  0  0  0  0  0  0  0  0  0  0
    1.2990    0.7500    0.0000 C   0  0  0  0  0  0  0  0  0  0  0  0
    2.5981   -0.0000    0.0000 N   0  0  0  0  0  0  0  0  0  0  0  0
    3.8971    0.7500    0.0000 C   0  0  0  0  0  0  0  0  0  0  0  0
    3.8971    2.2500    0.0000 O   0  0  0  0  0  0  0  0  0  0  0  0
    5.1962   -0.0000    0.0000 C   0  0  0  0  0  0  0  0  0  0  0  0
    5.9462    1.2990    0.0000 F   0  0  0  0  0  0  0  0  0  0  0  0
    4.4462   -1.2990    0.0000 F   0  0  0  0  0  0  0  0  0  0  0  0
    6.4952   -0.7500    0.0000 C   0  0  0  0  0  0  0  0  0  0  0  0
    5.7452   -2.0490    0.0000 F   0  0  0  0  0  0  0  0  0  0  0  0
    7.2452    0.5490    0.0000 F   0  0  0  0  0  0  0  0  0  0  0  0
    7.7942   -1.5000    0.0000 C   0  0  0  0  0  0  0  0  0  0  0  0
    8.5442   -0.2010    0.0000 F   0  0  0  0  0  0  0  0  0  0  0  0
    7.0442   -2.7990    0.0000 F   0  0  0  0  0  0  0  0  0  0  0  0
    9.0933   -2.2500    0.0000 C   0  0  0  0  0  0  0  0  0  0  0  0
    8.3433   -3.5490    0.0000 F   0  0  0  0  0  0  0  0  0  0  0  0
    9.8433   -0.9510    0.0000 F   0  0  0  0  0  0  0  0  0  0  0  0
   10.3923   -3.0000    0.0000 C   0  0  0  0  0  0  0  0  0  0  0  0
   11.1423   -1.7010    0.0000 F   0  0  0  0  0  0  0  0  0  0  0  0
    9.6423   -4.2990    0.0000 F   0  0  0  0  0  0  0  0  0  0  0  0
   11.6913   -3.7500    0.0000 C   0  0  0  0  0  0  0  0  0  0  0  0
   10.9413   -5.0490    0.0000 F   0  0  0  0  0  0  0  0  0  0  0  0
   12.4413   -2.4510    0.0000 F   0  0  0  0  0  0  0  0  0  0  0  0
   12.9904   -4.5000    0.0000 C   0  0  0  0  0  0  0  0  0  0  0  0
   14.2894   -5.2500    0.0000 F   0  0  0  0  0  0  0  0  0  0  0  0
   13.7404   -3.2010    0.0000 F   0  0  0  0  0  0  0  0  0  0  0  0
   12.2404   -5.7990    0.0000 F   0  0  0  0  0  0  0  0  0  0  0  0
  1  2  1  0
  2  3  1  0
  3  4  1  0
  4  5  2  0
  4  6  1  0
  6  7  1  0
  6  8  1  0
  6  9  1  0
  9 10  1  0
  9 11  1  0
  9 12  1  0
 12 13  1  0
 12 14  1  0
 12 15  1  0
 15 16  1  0
 15 17  1  0
 15 18  1  0
 18 19  1  0
 18 20  1  0
 18 21  1  0
 21 22  1  0
 21 23  1  0
 21 24  1  0
 24 25  1  0
 24 26  1  0
 24 27  1  0
M  END
$$$$

     RDKit          2D

 18 17  0  0  0  0  0  0  0  0999 V2000
   -0.8243    1.8684    0.0000 O   0  0  0  0  0  0  0  0  0  0  0  0
   -1.2990    0.7500    0.0000 C   0  0  0  0  0  0  0  0  0  0  0  0
   -2.0490   -0.5490    0.0000 O   0  0  0  0  0  0  0  0  0  0  0  0
    0.0000   -0.0000    0.0000 C   0  0  0  0  0  0  0  0  0  0  0  0
   -0.0000   -1.5000    0.0000 F   0  0  0  0  0  0  0  0  0  0  0  0
    1.2990    0.7500    0.0000 C   0  0  0  0  0  0  0  0  0  0  0  0
    1.2990    2.2500    0.0000 C   0  0  0  0  0  0  0  0  0  0  0  0
    1.2990    3.7500    0.0000 F   0  0  0  0  0  0  0  0  0  0  0  0
    2.7990    2.2500    0.0000 F   0  0  0  0  0  0  0  0  0  0  0  0
    0.0931    2.3981    0.0000 F   0  0  0  0  0  0  0  0  0  0  0  0
    2.5981   -0.0000    0.0000 C   0  0  0  0  0  0  0  0  0  0  0  0
    3.8971   -0.7500    0.0000 F   0  0  0  0  0  0  0  0  0  0  0  0
    1.8481   -1.2990    0.0000 F   0  0  0  0  0  0  0  0  0  0  0  0
    3.3481    1.2990    0.0000 F   0  0  0  0  0  0  0  0  0  0  0  0
   -2.5981    1.5000    0.0000 C   0  0  0  0  0  0  0  0  0  0  0  0
   -3.8971    2.2500    0.0000 F   0  0  0  0  0  0  0  0  0  0  0  0
   -3.3481    0.2010    0.0000 F   0  0  0  0  0  0  0  0  0  0  0  0
   -1.8481    2.7990    0.0000 F   0  0  0  0  0  0  0  0  0  0  0  0
  1  2  1  0
  2  3  1  0
  2  4  1  0
  4  5  1  0
  4  6  2  0
  6  7  1  0
  7  8  1  0
  7  9  1  0
  7 10  1  0
  6 11  1  0
 11 12  1  0
 11 13  1  0
 11 14  1  0
  2 15  1  0
 15 16  1  0
 15 17  1  0
 15 18  1  0
M  END
$$$$

     RDKit          2D

 18 17  0  0  0  0  0  0  0  0999 V2000
    0.0000    0.0000    0.0000 C   0  0  0  0  0  0  0  0  0  0  0  0
    1.2990    0.7500    0.0000 C   0  0  0  0  0  0  0  0  0  0  0  0
    2.5981    1.5000    0.0000 C   0  0  0  0  0  0  0  0  0  0  0  0
    2.0490   -0.5490    0.0000 C   0  0  0  0  0  0  0  0  0  0  0  0
    0.5490    2.0490    0.0000 O   0  0  0  0  0  0  0  0  0  0  0  0
    1.2990    3.3481    0.0000 O   0  0  0  0  0  0  0  0  0  0  0  0
    0.5490    4.6471    0.0000 C   0  0  0  0  0  0  0  0  0  0  0  0
   -0.9510    4.6471    0.0000 O   0  0  0  0  0  0  0  0  0  0  0  0
    1.2990    5.9462    0.0000 C   0  0  0  0  0  0  0  0  0  0  0  0
    0.0000    6.6962    0.0000 F   0  0  0  0  0  0  0  0  0  0  0  0
    2.5981    5.1962    0.0000 F   0  0  0  0  0  0  0  0  0  0  0  0
    2.0490    7.2452    0.0000 C   0  0  0  0  0  0  0  0  0  0  0  0
    3.3481    6.4952    0.0000 F   0  0  0  0  0  0  0  0  0  0  0  0
    0.7500    7.9952    0.0000 F   0  0  0  0  0  0  0  0  0  0  0  0
    2.7990    8.5442    0.0000 C   0  0  0  0  0  0  0  0  0  0  0  0
    3.5490    9.8433    0.0000 F   0  0  0  0  0  0  0  0  0  0  0  0
    1.5000    9.2942    0.0000 F   0  0  0  0  0  0  0  0  0  0  0  0
    4.0981    7.7942    0.0000 F   0  0  0  0  0  0  0  0  0  0  0  0
  1  2  1  0
  2  3  1  0
  2  4  1  0
  2  5  1  0
  5  6  1  0
  6  7  1  0
  7  8  2  0
  7  9  1  0
  9 10  1  0
  9 11  1  0
  9 12  1  0
 12 13  1  0
 12 14  1  0
 12 15  1  0
 15 16  1  0
 15 17  1  0
 15 18  1  0
M  END
$$$$

     RDKit          2D

 17 16  0  0  0  0  0  0  0  0999 V2000
    0.0000    0.0000    0.0000 C   0  0  0  0  0  0  0  0  0  0  0  0
    1.2990    0.7500    0.0000 C   0  0  0  0  0  0  0  0  0  0  0  0
    2.5981   -0.0000    0.0000 C   0  0  0  0  0  0  0  0  0  0  0  0
    3.8971    0.7500    0.0000 C   0  0  0  0  0  0  0  0  0  0  0  0
    5.1962   -0.0000    0.0000 C   0  0  0  0  0  0  0  0  0  0  0  0
    6.4952    0.7500    0.0000 O   0  0  0  0  0  0  0  0  0  0  0  0
    7.7942   -0.0000    0.0000 C   0  0  0  0  0  0  0  0  0  0  0  0
    7.7942   -1.5000    0.0000 O   0  0  0  0  0  0  0  0  0  0  0  0
    9.0933    0.7500    0.0000 C   0  0  0  0  0  0  0  0  0  0  0  0
    9.8433   -0.5490    0.0000 F   0  0  0  0  0  0  0  0  0  0  0  0
    8.3433    2.0490    0.0000 F   0  0  0  0  0  0  0  0  0  0  0  0
   10.3923    1.5000    0.0000 C   0  0  0  0  0  0  0  0  0  0  0  0
   11.1423    0.2010    0.0000 F   0  0  0  0  0  0  0  0  0  0  0  0
    9.6423    2.7990    0.0000 F   0  0  0  0  0  0  0  0  0  0  0  0
   11.6913    2.2500    0.0000 C   0  0  0  0  0  0  0  0  0  0  0  0
   12.9904    1.5000    0.0000 O   0  0  0  0  0  0  0  0  0  0  0  0
   11.6913    3.7500    0.0000 F   0  0  0  0  0  0  0  0  0  0  0  0
  1  2  1  0
  2  3  1  0
  3  4  1  0
  4  5  1  0
  5  6  1  0
  6  7  1  0
  7  8  2  0
  7  9  1  0
  9 10  1  0
  9 11  1  0
  9 12  1  0
 12 13  1  0
 12 14  1  0
 12 15  1  0
 15 16  2  0
 15 17  1  0
M  END
$$$$

     RDKit          2D

 28 29  0  0  0  0  0  0  0  0999 V2000
    3.0000    0.0000    0.0000 F   0  0  0  0  0  0  0  0  0  0  0  0
    1.5000    0.0000    0.0000 C   0  0  0  0  0  0  0  0  0  0  0  0
    0.7500   -1.2990    0.0000 C   0  0  0  0  0  0  0  0  0  0  0  0
    1.5000   -2.5981    0.0000 N   0  0  0  0  0  0  0  0  0  0  0  0
    3.0000   -2.5981    0.0000 F   0  0  0  0  0  0  0  0  0  0  0  0
    0.7500   -3.8971    0.0000 C   0  0  0  0  0  0  0  0  0  0  0  0
    0.4895   -5.3743    0.0000 F   0  0  0  0  0  0  0  0  0  0  0  0
    2.1595   -4.4101    0.0000 F   0  0  0  0  0  0  0  0  0  0  0  0
   -0.7500   -3.8971    0.0000 C   0  0  0  0  0  0  0  0  0  0  0  0
   -2.1595   -4.4101    0.0000 F   0  0  0  0  0  0  0  0  0  0  0  0
   -0.4895   -5.3743    0.0000 F   0  0  0  0  0  0  0  0  0  0  0  0
   -1.5000   -2.5981    0.0000 C   0  0  0  0  0  0  0  0  0  0  0  0
   -2.6491   -3.5623    0.0000 F   0  0  0  0  0  0  0  0  0  0  0  0
   -2.6491   -1.6339    0.0000 C   0  0  0  0  0  0  0  0  0  0  0  0
   -3.7981   -0.6697    0.0000 F   0  0  0  0  0  0  0  0  0  0  0  0
   -3.6132   -2.7830    0.0000 F   0  0  0  0  0  0  0  0  0  0  0  0
   -2.2997   -0.9174    0.0000 F   0  0  0  0  0  0  0  0  0  0  0  0
   -0.7500   -1.2990    0.0000 C   0  0  0  0  0  0  0  0  0  0  0  0
   -1.5412   -1.2019    0.0000 F   0  0  0  0  0  0  0  0  0  0  0  0
   -1.5000    0.0000    0.0000 C   0  0  0  0  0  0  0  0  0  0  0  0
   -2.9183   -0.4882    0.0000 F   0  0  0  0  0  0  0  0  0  0  0  0
   -2.6491    0.9642    0.0000 F   0  0  0  0  0  0  0  0  0  0  0  0
   -0.7500    1.2990    0.0000 C   0  0  0  0  0  0  0  0  0  0  0  0
   -2.1595    1.8121    0.0000 F   0  0  0  0  0  0  0  0  0  0  0  0
   -0.4895    2.7762    0.0000 F   0  0  0  0  0  0  0  0  0  0  0  0
    0.7500    1.2990    0.0000 C   0  0  0  0  0  0  0  0  0  0  0  0
    0.4895    2.7762    0.0000 F   0  0  0  0  0  0  0  0  0  0  0  0
    2.1595    1.8121    0.0000 F   0  0  0  0  0  0  0  0  0  0  0  0
  1  2  1  0
  2  3  2  0
  3  4  1  0
  4  5  1  0
  4  6  1  0
  6  7  1  0
  6  8  1  0
  6  9  1  0
  9 10  1  0
  9 11  1  0
  9 12  1  0
 12 13  1  0
 12 14  1  0
 14 15  1  0
 14 16  1  0
 14 17  1  0
 12 18  1  0
 18 19  1  0
 18 20  1  0
 20 21  1  0
 20 22  1  0
 20 23  1  0
 23 24  1  0
 23 25  1  0
 23 26  1  0
 26 27  1  0
 26 28  1  0
 26  2  1  0
 18  3  1  0
M  END
$$$$

     RDKit          2D

 14 13  0  0  0  0  0  0  0  0999 V2000
   -1.2990    0.7500    0.0000 N   0  0  0  0  0  0  0  0  0  0  0  0
    0.0000    0.0000    0.0000 C   0  0  0  0  0  0  0  0  0  0  0  0
   -0.0000   -1.5000    0.0000 O   0  0  0  0  0  0  0  0  0  0  0  0
    1.2990    0.7500    0.0000 C   0  0  0  0  0  0  0  0  0  0  0  0
    2.0490   -0.5490    0.0000 F   0  0  0  0  0  0  0  0  0  0  0  0
    0.5490    2.0490    0.0000 F   0  0  0  0  0  0  0  0  0  0  0  0
    2.5981    1.5000    0.0000 O   0  0  0  0  0  0  0  0  0  0  0  0
    2.5981    3.0000    0.0000 C   0  0  0  0  0  0  0  0  0  0  0  0
    1.0981    3.0000    0.0000 F   0  0  0  0  0  0  0  0  0  0  0  0
    4.0981    3.0000    0.0000 F   0  0  0  0  0  0  0  0  0  0  0  0
    2.5981    4.5000    0.0000 C   0  0  0  0  0  0  0  0  0  0  0  0
    2.5981    6.0000    0.0000 F   0  0  0  0  0  0  0  0  0  0  0  0
    1.0981    4.5000    0.0000 F   0  0  0  0  0  0  0  0  0  0  0  0
    4.0981    4.5000    0.0000 I   0  0  0  0  0  0  0  0  0  0  0  0
  1  2  1  0
  2  3  2  0
  2  4  1  0
  4  5  1  0
  4  6  1  0
  4  7  1  0
  7  8  1  0
  8  9  1  0
  8 10  1  0
  8 11  1  0
 11 12  1  0
 11 13  1  0
 11 14  1  0
M  END
$$$$

     RDKit          2D

 18 17  0  0  0  0  0  0  0  0999 V2000
   -1.2990    0.7500    0.0000 O   0  0  0  0  0  0  0  0  0  0  0  0
    0.0000    0.0000    0.0000 C   0  0  0  0  0  0  0  0  0  0  0  0
    1.2990    0.7500    0.0000 C   0  0  0  0  0  0  0  0  0  0  0  0
    1.2990    2.2500    0.0000 I   0  0  0  0  0  0  0  0  0  0  0  0
    2.5981   -0.0000    0.0000 C   0  0  0  0  0  0  0  0  0  0  0  0
    3.8971    0.7500    0.0000 C   0  0  0  0  0  0  0  0  0  0  0  0
    4.6471   -0.5490    0.0000 F   0  0  0  0  0  0  0  0  0  0  0  0
    3.1471    2.0490    0.0000 F   0  0  0  0  0  0  0  0  0  0  0  0
    5.1962    1.5000    0.0000 C   0  0  0  0  0  0  0  0  0  0  0  0
    4.4462    2.7990    0.0000 F   0  0  0  0  0  0  0  0  0  0  0  0
    5.9462    0.2010    0.0000 F   0  0  0  0  0  0  0  0  0  0  0  0
    6.4952    2.2500    0.0000 C   0  0  0  0  0  0  0  0  0  0  0  0
    7.2452    0.9510    0.0000 F   0  0  0  0  0  0  0  0  0  0  0  0
    5.7452    3.5490    0.0000 F   0  0  0  0  0  0  0  0  0  0  0  0
    7.7942    3.0000    0.0000 C   0  0  0  0  0  0  0  0  0  0  0  0
    9.0933    3.7500    0.0000 F   0  0  0  0  0  0  0  0  0  0  0  0
    7.0442    4.2990    0.0000 F   0  0  0  0  0  0  0  0  0  0  0  0
    8.5442    1.7010    0.0000 Cl  0  0  0  0  0  0  0  0  0  0  0  0
  1  2  1  0
  2  3  1  0
  3  4  1  0
  3  5  1  0
  5  6  1  0
  6  7  1  0
  6  8  1  0
  6  9  1  0
  9 10  1  0
  9 11  1  0
  9 12  1  0
 12 13  1  0
 12 14  1  0
 12 15  1  0
 15 16  1  0
 15 17  1  0
 15 18  1  0
M  END
$$$$

     RDKit          2D

 34 33  0  0  0  0  0  0  0  0999 V2000
   -1.2990   -2.2500    0.0000 C   0  0  0  0  0  0  0  0  0  0  0  0
   -1.2990   -3.7500    0.0000 C   0  0  0  0  0  0  0  0  0  0  0  0
    0.0000   -4.5000    0.0000 C   0  0  0  0  0  0  0  0  0  0  0  0
    0.0000   -6.0000    0.0000 C   0  0  0  0  0  0  0  0  0  0  0  0
    1.2990   -6.7500    0.0000 C   0  0  0  0  0  0  0  0  0  0  0  0
    1.2990   -3.7500    0.0000 C   0  0  0  0  0  0  0  0  0  0  0  0
    2.5981   -4.5000    0.0000 C   0  0  0  0  0  0  0  0  0  0  0  0
    3.8971   -3.7500    0.0000 C   0  0  0  0  0  0  0  0  0  0  0  0
    3.8971   -2.2500    0.0000 O   0  0  0  0  0  0  0  0  0  0  0  0
    5.1962   -1.5000    0.0000 P   0  0  0  0  0  0  0  0  0  0  0  0
    4.4462   -0.2010    0.0000 O   0  0  0  0  0  0  0  0  0  0  0  0
    5.9462   -2.7990    0.0000 O   0  0  0  0  0  0  0  0  0  0  0  0
    6.4952   -0.7500    0.0000 O   0  0  0  0  0  0  0  0  0  0  0  0
    5.1962   -4.5000    0.0000 C   0  0  0  0  0  0  0  0  0  0  0  0
    6.4952   -3.7500    0.0000 F   0  0  0  0  0  0  0  0  0  0  0  0
    5.1962   -6.0000    0.0000 C   0  0  0  0  0  0  0  0  0  0  0  0
    6.6962   -6.0000    0.0000 F   0  0  0  0  0  0  0  0  0  0  0  0
    3.6962   -6.0000    0.0000 F   0  0  0  0  0  0  0  0  0  0  0  0
    5.1962   -7.5000    0.0000 C   0  0  0  0  0  0  0  0  0  0  0  0
    3.6962   -7.5000    0.0000 F   0  0  0  0  0  0  0  0  0  0  0  0
    6.6962   -7.5000    0.0000 F   0  0  0  0  0  0  0  0  0  0  0  0
    5.1962   -9.0000    0.0000 C   0  0  0  0  0  0  0  0  0  0  0  0
    6.6962   -9.0000    0.0000 F   0  0  0  0  0  0  0  0  0  0  0  0
    3.6962   -9.0000    0.0000 F   0  0  0  0  0  0  0  0  0  0  0  0
    5.1962  -10.5000    0.0000 C   0  0  0  0  0  0  0  0  0  0  0  0
    3.6962  -10.5000    0.0000 F   0  0  0  0  0  0  0  0  0  0  0  0
    6.6962  -10.5000    0.0000 F   0  0  0  0  0  0  0  0  0  0  0  0
    5.1962  -12.0000    0.0000 C   0  0  0  0  0  0  0  0  0  0  0  0
    6.6962  -12.0000    0.0000 F   0  0  0  0  0  0  0  0  0  0  0  0
    3.6962  -12.0000    0.0000 F   0  0  0  0  0  0  0  0  0  0  0  0
    5.1962  -13.5000    0.0000 C   0  0  0  0  0  0  0  0  0  0  0  0
    5.1962  -15.0000    0.0000 F   0  0  0  0  0  0  0  0  0  0  0  0
    3.6962  -13.5000    0.0000 F   0  0  0  0  0  0  0  0  0  0  0  0
    6.6962  -13.5000    0.0000 F   0  0  0  0  0  0  0  0  0  0  0  0
  1  2  1  0
  2  3  1  0
  3  4  1  0
  4  5  1  0
  3  6  1  0
  6  7  1  0
  7  8  1  0
  8  9  1  0
  9 10  1  0
 10 11  2  0
 10 12  1  0
 10 13  1  0
  8 14  2  3
 14 15  1  0
 14 16  1  0
 16 17  1  0
 16 18  1  0
 16 19  1  0
 19 20  1  0
 19 21  1  0
 19 22  1  0
 22 23  1  0
 22 24  1  0
 22 25  1  0
 25 26  1  0
 25 27  1  0
 25 28  1  0
 28 29  1  0
 28 30  1  0
 28 31  1  0
 31 32  1  0
 31 33  1  0
 31 34  1  0
M  CHG  2  12  -1  13  -1
M  END
$$$$

     RDKit          2D

 24 22  0  0  0  0  0  0  0  0999 V2000
    0.0000    0.0000    0.0000 C   0  0  0  0  0  0  0  0  0  0  0  0
    1.2990    0.7500    0.0000 C   0  0  0  0  0  0  0  0  0  0  0  0
    1.2990    2.2500    0.0000 O   0  0  0  0  0  0  0  0  0  0  0  0
    2.5981   -0.0000    0.0000 O   0  0  0  0  0  0  0  0  0  0  0  0
   -1.2990    7.5490    0.0000 O   0  0  0  0  0  0  0  0  0  0  0  0
    0.0000    6.7990    0.0000 C   0  0  0  0  0  0  0  0  0  0  0  0
    1.2990    7.5490    0.0000 C   0  0  0  0  0  0  0  0  0  0  0  0
    2.5981    6.7990    0.0000 C   0  0  0  0  0  0  0  0  0  0  0  0
    3.8971    7.5490    0.0000 C   0  0  0  0  0  0  0  0  0  0  0  0
    5.1962    6.7990    0.0000 C   0  0  0  0  0  0  0  0  0  0  0  0
    6.4952    7.5490    0.0000 C   0  0  0  0  0  0  0  0  0  0  0  0
    7.7942    6.7990    0.0000 C   0  0  0  0  0  0  0  0  0  0  0  0
    8.5442    8.0981    0.0000 F   0  0  0  0  0  0  0  0  0  0  0  0
    7.0442    5.5000    0.0000 F   0  0  0  0  0  0  0  0  0  0  0  0
    9.0933    6.0490    0.0000 C   0  0  0  0  0  0  0  0  0  0  0  0
    8.3433    4.7500    0.0000 F   0  0  0  0  0  0  0  0  0  0  0  0
    9.8433    7.3481    0.0000 F   0  0  0  0  0  0  0  0  0  0  0  0
   10.3923    5.2990    0.0000 C   0  0  0  0  0  0  0  0  0  0  0  0
   11.1423    6.5981    0.0000 F   0  0  0  0  0  0  0  0  0  0  0  0
    9.6423    4.0000    0.0000 F   0  0  0  0  0  0  0  0  0  0  0  0
   11.6913    4.5490    0.0000 C   0  0  0  0  0  0  0  0  0  0  0  0
   12.9904    3.7990    0.0000 F   0  0  0  0  0  0  0  0  0  0  0  0
   10.9413    3.2500    0.0000 F   0  0  0  0  0  0  0  0  0  0  0  0
   12.4413    5.8481    0.0000 F   0  0  0  0  0  0  0  0  0  0  0  0
  1  2  1  0
  2  3  2  0
  2  4  1  0
  5  6  1  0
  6  7  1  0
  7  8  1  0
  8  9  1  0
  9 10  1  0
 10 11  2  3
 11 12  1  0
 12 13  1  0
 12 14  1  0
 12 15  1  0
 15 16  1  0
 15 17  1  0
 15 18  1  0
 18 19  1  0
 18 20  1  0
 18 21  1  0
 21 22  1  0
 21 23  1  0
 21 24  1  0
M  END
$$$$

     RDKit          2D

 26 27  0  0  0  0  0  0  0  0999 V2000
   -0.0000   -8.1073    0.0000 F   0  0  0  0  0  0  0  0  0  0  0  0
   -0.0000   -6.6073    0.0000 C   0  0  0  0  0  0  0  0  0  0  0  0
    1.5000   -6.6073    0.0000 F   0  0  0  0  0  0  0  0  0  0  0  0
   -1.5000   -6.6073    0.0000 F   0  0  0  0  0  0  0  0  0  0  0  0
   -0.0000   -5.1073    0.0000 C   0  0  0  0  0  0  0  0  0  0  0  0
   -1.5000   -5.1073    0.0000 F   0  0  0  0  0  0  0  0  0  0  0  0
    1.5000   -5.1073    0.0000 O   0  0  0  0  0  0  0  0  0  0  0  0
    2.2500   -3.8083    0.0000 C   0  0  0  0  0  0  0  0  0  0  0  0
    1.6766   -3.2545    0.0000 F   0  0  0  0  0  0  0  0  0  0  0  0
    3.5490   -4.5583    0.0000 F   0  0  0  0  0  0  0  0  0  0  0  0
    3.0000   -2.5092    0.0000 C   0  0  0  0  0  0  0  0  0  0  0  0
    4.2990   -3.2592    0.0000 F   0  0  0  0  0  0  0  0  0  0  0  0
    1.7010   -1.7592    0.0000 F   0  0  0  0  0  0  0  0  0  0  0  0
    3.7500   -1.2102    0.0000 C   0  0  0  0  0  0  0  0  0  0  0  0
    4.5000    0.0889    0.0000 F   0  0  0  0  0  0  0  0  0  0  0  0
    2.4510   -0.4602    0.0000 F   0  0  0  0  0  0  0  0  0  0  0  0
    5.0490   -1.9602    0.0000 F   0  0  0  0  0  0  0  0  0  0  0  0
   -0.0000   -3.6073    0.0000 C   0  0  0  0  0  0  0  0  0  0  0  0
   -1.2135   -2.7256    0.0000 C   0  0  0  0  0  0  0  0  0  0  0  0
   -0.7500   -1.2990    0.0000 C   0  0  0  0  0  0  0  0  0  0  0  0
   -1.5000    0.0000    0.0000 C   0  0  0  0  0  0  0  0  0  0  0  0
   -0.7500    1.2990    0.0000 C   0  0  0  0  0  0  0  0  0  0  0  0
    0.7500    1.2990    0.0000 C   0  0  0  0  0  0  0  0  0  0  0  0
    1.5000    0.0000    0.0000 C   0  0  0  0  0  0  0  0  0  0  0  0
    0.7500   -1.2990    0.0000 C   0  0  0  0  0  0  0  0  0  0  0  0
    1.2135   -2.7256    0.0000 S   0  0  0  0  0  0  0  0  0  0  0  0
  1  2  1  0
  2  3  1  0
  2  4  1  0
  2  5  1  0
  5  6  1  0
  5  7  1  0
  7  8  1  0
  8  9  1  0
  8 10  1  0
  8 11  1  0
 11 12  1  0
 11 13  1  0
 11 14  1  0
 14 15  1  0
 14 16  1  0
 14 17  1  0
  5 18  1  0
 18 19  2  0
 19 20  1  0
 20 21  2  0
 21 22  1  0
 22 23  2  0
 23 24  1  0
 24 25  2  0
 25 26  1  0
 26 18  1  0
 25 20  1  0
M  END
$$$$

     RDKit          2D

 22 21  0  0  0  0  0  0  0  0999 V2000
    0.0000    3.0000    0.0000 O   0  0  0  0  0  0  0  0  0  0  0  0
   -1.2990    2.2500    0.0000 C   0  0  0  0  0  0  0  0  0  0  0  0
   -1.2990    0.7500    0.0000 N   0  0  0  0  0  0  0  0  0  0  0  0
    0.0000    0.0000    0.0000 C   0  0  0  0  0  0  0  0  0  0  0  0
    1.2990    0.7500    0.0000 C   0  0  0  0  0  0  0  0  0  0  0  0
    2.5981   -0.0000    0.0000 O   0  0  0  0  0  0  0  0  0  0  0  0
   -2.5981    0.0000    0.0000 C   0  0  0  0  0  0  0  0  0  0  0  0
   -3.8971    0.7500    0.0000 C   0  0  0  0  0  0  0  0  0  0  0  0
   -5.1962    0.0000    0.0000 O   0  0  0  0  0  0  0  0  0  0  0  0
   -2.5981    3.0000    0.0000 C   0  0  0  0  0  0  0  0  0  0  0  0
   -1.8481    4.2990    0.0000 F   0  0  0  0  0  0  0  0  0  0  0  0
   -3.3481    1.7010    0.0000 F   0  0  0  0  0  0  0  0  0  0  0  0
   -3.8971    3.7500    0.0000 C   0  0  0  0  0  0  0  0  0  0  0  0
   -3.1471    5.0490    0.0000 F   0  0  0  0  0  0  0  0  0  0  0  0
   -4.6471    2.4510    0.0000 F   0  0  0  0  0  0  0  0  0  0  0  0
   -5.1962    4.5000    0.0000 C   0  0  0  0  0  0  0  0  0  0  0  0
   -5.9462    3.2010    0.0000 F   0  0  0  0  0  0  0  0  0  0  0  0
   -4.4462    5.7990    0.0000 F   0  0  0  0  0  0  0  0  0  0  0  0
   -6.4952    5.2500    0.0000 C   0  0  0  0  0  0  0  0  0  0  0  0
   -7.7942    6.0000    0.0000 F   0  0  0  0  0  0  0  0  0  0  0  0
   -5.7452    6.5490    0.0000 F   0  0  0  0  0  0  0  0  0  0  0  0
   -7.2452    3.9510    0.0000 F   0  0  0  0  0  0  0  0  0  0  0  0
  1  2  2  0
  2  3  1  0
  3  4  1  0
  4  5  1  0
  5  6  1  0
  3  7  1  0
  7  8  1  0
  8  9  1  0
  2 10  1  0
 10 11  1  0
 10 12  1  0
 10 13  1  0
 13 14  1  0
 13 15  1  0
 13 16  1  0
 16 17  1  0
 16 18  1  0
 16 19  1  0
 19 20  1  0
 19 21  1  0
 19 22  1  0
M  END
$$$$

     RDKit          2D

 19 18  0  0  0  0  0  0  0  0999 V2000
   -6.4952    3.7500    0.0000 F   0  0  0  0  0  0  0  0  0  0  0  0
   -5.1962    3.0000    0.0000 C   0  0  0  0  0  0  0  0  0  0  0  0
   -4.4462    4.2990    0.0000 F   0  0  0  0  0  0  0  0  0  0  0  0
   -5.9462    1.7010    0.0000 F   0  0  0  0  0  0  0  0  0  0  0  0
   -3.8971    2.2500    0.0000 C   0  0  0  0  0  0  0  0  0  0  0  0
   -4.6471    0.9510    0.0000 F   0  0  0  0  0  0  0  0  0  0  0  0
   -3.1471    3.5490    0.0000 F   0  0  0  0  0  0  0  0  0  0  0  0
   -2.5981    1.5000    0.0000 C   0  0  0  0  0  0  0  0  0  0  0  0
   -1.8481    2.7990    0.0000 F   0  0  0  0  0  0  0  0  0  0  0  0
   -3.3481    0.2010    0.0000 F   0  0  0  0  0  0  0  0  0  0  0  0
   -1.2990    0.7500    0.0000 C   0  0  0  0  0  0  0  0  0  0  0  0
   -2.0490   -0.5490    0.0000 F   0  0  0  0  0  0  0  0  0  0  0  0
   -0.5490    2.0490    0.0000 F   0  0  0  0  0  0  0  0  0  0  0  0
    0.0000    0.0000    0.0000 C   0  0  0  0  0  0  0  0  0  0  0  0
    1.2990    0.7500    0.0000 C   0  0  0  0  0  0  0  0  0  0  0  0
    2.5981   -0.0000    0.0000 N   0  0  0  0  0  0  0  0  0  0  0  0
    3.8971    0.7500    0.0000 C   0  0  0  0  0  0  0  0  0  0  0  0
    5.1962   -0.0000    0.0000 Cl  0  0  0  0  0  0  0  0  0  0  0  0
    3.8971    2.2500    0.0000 Cl  0  0  0  0  0  0  0  0  0  0  0  0
  1  2  1  0
  2  3  1  0
  2  4  1  0
  2  5  1  0
  5  6  1  0
  5  7  1  0
  5  8  1  0
  8  9  1  0
  8 10  1  0
  8 11  1  0
 11 12  1  0
 11 13  1  0
 11 14  1  0
 14 15  1  0
 15 16  1  0
 16 17  2  0
 17 18  1  0
 17 19  1  0
M  END
$$$$

     RDKit          2D

 20 19  0  0  0  0  0  0  0  0999 V2000
    0.0000    0.0000    0.0000 C   0  0  0  0  0  0  0  0  0  0  0  0
    1.2990    0.7500    0.0000 C   0  0  0  0  0  0  0  0  0  0  0  0
    2.5981   -0.0000    0.0000 O   0  0  0  0  0  0  0  0  0  0  0  0
    3.8971    0.7500    0.0000 Si  0  0  0  0  0  4  0  0  0  0  0  0
    3.1471    2.0490    0.0000 O   0  0  0  0  0  0  0  0  0  0  0  0
    1.6471    2.0490    0.0000 C   0  0  0  0  0  0  0  0  0  0  0  0
    0.8971    3.3481    0.0000 C   0  0  0  0  0  0  0  0  0  0  0  0
    4.6471   -0.5490    0.0000 O   0  0  0  0  0  0  0  0  0  0  0  0
    3.8971   -1.8481    0.0000 C   0  0  0  0  0  0  0  0  0  0  0  0
    4.6471   -3.1471    0.0000 C   0  0  0  0  0  0  0  0  0  0  0  0
    5.1962    1.5000    0.0000 C   0  0  0  0  0  0  0  0  0  0  0  0
    5.9462    0.2010    0.0000 F   0  0  0  0  0  0  0  0  0  0  0  0
    4.4462    2.7990    0.0000 C   0  0  0  0  0  0  0  0  0  0  0  0
    3.6962    4.0981    0.0000 F   0  0  0  0  0  0  0  0  0  0  0  0
    5.6441    3.7018    0.0000 F   0  0  0  0  0  0  0  0  0  0  0  0
    3.6799    2.5794    0.0000 F   0  0  0  0  0  0  0  0  0  0  0  0
    6.4952    2.2500    0.0000 S   0  0  0  0  0  0  0  0  0  0  0  0
    7.7942    3.0000    0.0000 O   0  0  0  0  0  0  0  0  0  0  0  0
    5.9091    3.6308    0.0000 O   0  0  0  0  0  0  0  0  0  0  0  0
    7.2452    0.9510    0.0000 F   0  0  0  0  0  0  0  0  0  0  0  0
  1  2  1  0
  2  3  1  0
  3  4  1  0
  4  5  1  0
  5  6  1  0
  6  7  1  0
  4  8  1  0
  8  9  1  0
  9 10  1  0
  4 11  1  0
 11 12  1  0
 11 13  1  0
 13 14  1  0
 13 15  1  0
 13 16  1  0
 11 17  1  0
 17 18  2  0
 17 19  2  0
 17 20  1  0
M  END
$$$$

     RDKit          2D

 19 17  0  0  0  0  0  0  0  0999 V2000
    0.0000    0.0000    0.0000 C   0  0  0  0  0  0  0  0  0  0  0  0
    1.2990    0.7500    0.0000 S   0  0  0  0  0  0  0  0  0  0  0  0
    2.0490   -0.5490    0.0000 O   0  0  0  0  0  0  0  0  0  0  0  0
    0.5490    2.0490    0.0000 O   0  0  0  0  0  0  0  0  0  0  0  0
    2.5981    1.5000    0.0000 O   0  0  0  0  0  0  0  0  0  0  0  0
    3.5981    0.7500    0.0000 O   0  0  0  0  0  0  0  0  0  0  0  0
    4.8971    0.0000    0.0000 C   0  0  0  0  0  0  0  0  0  0  0  0
    6.1962    0.7500    0.0000 C   0  0  0  0  0  0  0  0  0  0  0  0
    6.9462   -0.5490    0.0000 F   0  0  0  0  0  0  0  0  0  0  0  0
    5.4462    2.0490    0.0000 F   0  0  0  0  0  0  0  0  0  0  0  0
    7.4952    1.5000    0.0000 C   0  0  0  0  0  0  0  0  0  0  0  0
    6.7452    2.7990    0.0000 F   0  0  0  0  0  0  0  0  0  0  0  0
    8.2452    0.2010    0.0000 F   0  0  0  0  0  0  0  0  0  0  0  0
    8.7942    2.2500    0.0000 C   0  0  0  0  0  0  0  0  0  0  0  0
    8.0442    3.5490    0.0000 F   0  0  0  0  0  0  0  0  0  0  0  0
    9.5442    0.9510    0.0000 F   0  0  0  0  0  0  0  0  0  0  0  0
   10.0933    3.0000    0.0000 C   0  0  0  0  0  0  0  0  0  0  0  0
   10.0933    4.5000    0.0000 F   0  0  0  0  0  0  0  0  0  0  0  0
   11.3923    2.2500    0.0000 F   0  0  0  0  0  0  0  0  0  0  0  0
  1  2  1  0
  2  3  2  0
  2  4  2  0
  2  5  1  0
  6  7  1  0
  7  8  1  0
  8  9  1  0
  8 10  1  0
  8 11  1  0
 11 12  1  0
 11 13  1  0
 11 14  1  0
 14 15  1  0
 14 16  1  0
 14 17  1  0
 17 18  1  0
 17 19  1  0
M  END
$$$$

     RDKit          2D

 19 18  0  0  0  0  0  0  0  0999 V2000
    0.0000   -3.0000    0.0000 O   0  0  0  0  0  0  0  0  0  0  0  0
    0.0000   -1.5000    0.0000 S   0  0  0  0  0  0  0  0  0  0  0  0
   -1.5000   -1.5000    0.0000 O   0  0  0  0  0  0  0  0  0  0  0  0
    0.7912   -1.5972    0.0000 F   0  0  0  0  0  0  0  0  0  0  0  0
    0.0000    0.0000    0.0000 C   0  0  0  0  0  0  0  0  0  0  0  0
   -1.5000    0.0000    0.0000 F   0  0  0  0  0  0  0  0  0  0  0  0
    0.0000    1.5000    0.0000 F   0  0  0  0  0  0  0  0  0  0  0  0
    1.5000    0.0000    0.0000 C   0  0  0  0  0  0  0  0  0  0  0  0
    1.6080   -0.8791    0.0000 F   0  0  0  0  0  0  0  0  0  0  0  0
    1.5000    1.5000    0.0000 F   0  0  0  0  0  0  0  0  0  0  0  0
    3.0000    0.0000    0.0000 N   0  0  0  0  0  0  0  0  0  0  0  0
    3.7500    1.2990    0.0000 C   0  0  0  0  0  0  0  0  0  0  0  0
    4.5000    2.5981    0.0000 F   0  0  0  0  0  0  0  0  0  0  0  0
    5.0490    0.5490    0.0000 F   0  0  0  0  0  0  0  0  0  0  0  0
    2.4510    2.0490    0.0000 F   0  0  0  0  0  0  0  0  0  0  0  0
    3.7500   -1.2990    0.0000 C   0  0  0  0  0  0  0  0  0  0  0  0
    4.5000   -2.5981    0.0000 F   0  0  0  0  0  0  0  0  0  0  0  0
    5.0490   -0.5490    0.0000 F   0  0  0  0  0  0  0  0  0  0  0  0
    2.4510   -2.0490    0.0000 F   0  0  0  0  0  0  0  0  0  0  0  0
  1  2  2  0
  2  3  2  0
  2  4  1  0
  2  5  1  0
  5  6  1  0
  5  7  1  0
  5  8  1  0
  8  9  1  0
  8 10  1  0
  8 11  1  0
 11 12  1  0
 12 13  1  0
 12 14  1  0
 12 15  1  0
 11 16  1  0
 16 17  1  0
 16 18  1  0
 16 19  1  0
M  END
$$$$

     RDKit          2D

 31 30  0  0  0  0  0  0  0  0999 V2000
    0.0000    0.0000    0.0000 C   0  0  0  0  0  0  0  0  0  0  0  0
    1.2990    0.7500    0.0000 C   0  0  0  0  0  0  0  0  0  0  0  0
    2.5981   -0.0000    0.0000 C   0  0  0  0  0  0  0  0  0  0  0  0
    3.8971    0.7500    0.0000 C   0  0  0  0  0  0  0  0  0  0  0  0
    5.1962   -0.0000    0.0000 C   0  0  0  0  0  0  0  0  0  0  0  0
    6.4952    0.7500    0.0000 C   0  0  0  0  0  0  0  0  0  0  0  0
    7.7942   -0.0000    0.0000 C   0  0  0  0  0  0  0  0  0  0  0  0
    9.0933    0.7500    0.0000 C   0  0  0  0  0  0  0  0  0  0  0  0
   10.3923   -0.0000    0.0000 S   0  0  0  0  0  0  0  0  0  0  0  0
   11.6913    0.7500    0.0000 S   0  0  0  0  0  0  0  0  0  0  0  0
   12.9904   -0.0000    0.0000 C   0  0  0  0  0  0  0  0  0  0  0  0
   14.2894    0.7500    0.0000 C   0  0  0  0  0  0  0  0  0  0  0  0
   15.5885   -0.0000    0.0000 C   0  0  0  0  0  0  0  0  0  0  0  0
   16.3385    1.2990    0.0000 F   0  0  0  0  0  0  0  0  0  0  0  0
   14.8385   -1.2990    0.0000 F   0  0  0  0  0  0  0  0  0  0  0  0
   16.8875   -0.7500    0.0000 C   0  0  0  0  0  0  0  0  0  0  0  0
   16.1375   -2.0490    0.0000 F   0  0  0  0  0  0  0  0  0  0  0  0
   17.6375    0.5490    0.0000 F   0  0  0  0  0  0  0  0  0  0  0  0
   18.1865   -1.5000    0.0000 C   0  0  0  0  0  0  0  0  0  0  0  0
   18.9365   -0.2010    0.0000 F   0  0  0  0  0  0  0  0  0  0  0  0
   17.4365   -2.7990    0.0000 F   0  0  0  0  0  0  0  0  0  0  0  0
   19.4856   -2.2500    0.0000 C   0  0  0  0  0  0  0  0  0  0  0  0
   18.7356   -3.5490    0.0000 F   0  0  0  0  0  0  0  0  0  0  0  0
   20.2356   -0.9510    0.0000 F   0  0  0  0  0  0  0  0  0  0  0  0
   20.7846   -3.0000    0.0000 C   0  0  0  0  0  0  0  0  0  0  0  0
   21.5346   -1.7010    0.0000 F   0  0  0  0  0  0  0  0  0  0  0  0
   20.0346   -4.2990    0.0000 F   0  0  0  0  0  0  0  0  0  0  0  0
   22.0836   -3.7500    0.0000 C   0  0  0  0  0  0  0  0  0  0  0  0
   23.3827   -4.5000    0.0000 F   0  0  0  0  0  0  0  0  0  0  0  0
   21.3336   -5.0490    0.0000 F   0  0  0  0  0  0  0  0  0  0  0  0
   22.8336   -2.4510    0.0000 F   0  0  0  0  0  0  0  0  0  0  0  0
  1  2  1  0
  2  3  1  0
  3  4  1  0
  4  5  1  0
  5  6  1  0
  6  7  1  0
  7  8  1  0
  8  9  1  0
  9 10  1  0
 10 11  1  0
 11 12  1  0
 12 13  1  0
 13 14  1  0
 13 15  1  0
 13 16  1  0
 16 17  1  0
 16 18  1  0
 16 19  1  0
 19 20  1  0
 19 21  1  0
 19 22  1  0
 22 23  1  0
 22 24  1  0
 22 25  1  0
 25 26  1  0
 25 27  1  0
 25 28  1  0
 28 29  1  0
 28 30  1  0
 28 31  1  0
M  END
$$$$

     RDKit          2D

 20 20  0  0  0  0  0  0  0  0999 V2000
    6.0000    0.0000    0.0000 O   0  0  0  0  0  0  0  0  0  0  0  0
    5.2500   -1.2990    0.0000 C   0  0  0  0  0  0  0  0  0  0  0  0
    3.7500   -1.2990    0.0000 O   0  0  0  0  0  0  0  0  0  0  0  0
    3.0000    0.0000    0.0000 C   0  0  0  0  0  0  0  0  0  0  0  0
    1.5000    0.0000    0.0000 C   0  0  0  0  0  0  0  0  0  0  0  0
    0.7500   -1.2990    0.0000 C   0  0  0  0  0  0  0  0  0  0  0  0
   -0.7500   -1.2990    0.0000 C   0  0  0  0  0  0  0  0  0  0  0  0
   -1.5000    0.0000    0.0000 C   0  0  0  0  0  0  0  0  0  0  0  0
   -0.7500    1.2990    0.0000 C   0  0  0  0  0  0  0  0  0  0  0  0
    0.7500    1.2990    0.0000 C   0  0  0  0  0  0  0  0  0  0  0  0
    6.0000   -2.5981    0.0000 C   0  0  0  0  0  0  0  0  0  0  0  0
    7.2990   -1.8481    0.0000 F   0  0  0  0  0  0  0  0  0  0  0  0
    4.7010   -3.3481    0.0000 F   0  0  0  0  0  0  0  0  0  0  0  0
    6.7500   -3.8971    0.0000 C   0  0  0  0  0  0  0  0  0  0  0  0
    5.4510   -4.6471    0.0000 F   0  0  0  0  0  0  0  0  0  0  0  0
    8.0490   -3.1471    0.0000 F   0  0  0  0  0  0  0  0  0  0  0  0
    7.5000   -5.1962    0.0000 C   0  0  0  0  0  0  0  0  0  0  0  0
    8.2500   -6.4952    0.0000 F   0  0  0  0  0  0  0  0  0  0  0  0
    8.7990   -4.4462    0.0000 F   0  0  0  0  0  0  0  0  0  0  0  0
    6.2010   -5.9462    0.0000 I   0  0  0  0  0  0  0  0  0  0  0  0
  1  2  2  0
  2  3  1  0
  3  4  1  0
  4  5  1  0
  5  6  2  0
  6  7  1  0
  7  8  2  0
  8  9  1  0
  9 10  2  0
  2 11  1  0
 11 12  1  0
 11 13  1  0
 11 14  1  0
 14 15  1  0
 14 16  1  0
 14 17  1  0
 17 18  1  0
 17 19  1  0
 17 20  1  0
 10  5  1  0
M  END
$$$$

     RDKit          2D

 37 36  0  0  0  0  0  0  0  0999 V2000
    0.0000    0.0000    0.0000 C   0  0  0  0  0  0  0  0  0  0  0  0
    1.2990    0.7500    0.0000 C   0  0  0  0  0  0  0  0  0  0  0  0
    2.5981   -0.0000    0.0000 C   0  0  0  0  0  0  0  0  0  0  0  0
    3.8971    0.7500    0.0000 C   0  0  0  0  0  0  0  0  0  0  0  0
    5.1962   -0.0000    0.0000 C   0  0  0  0  0  0  0  0  0  0  0  0
    6.4952    0.7500    0.0000 C   0  0  0  0  0  0  0  0  0  0  0  0
    7.7942   -0.0000    0.0000 C   0  0  0  0  0  0  0  0  0  0  0  0
    9.0933    0.7500    0.0000 C   0  0  0  0  0  0  0  0  0  0  0  0
   10.3923   -0.0000    0.0000 C   0  0  0  0  0  0  0  0  0  0  0  0
   11.6913    0.7500    0.0000 C   0  0  0  0  0  0  0  0  0  0  0  0
   12.9904   -0.0000    0.0000 C   0  0  0  0  0  0  0  0  0  0  0  0
   14.2894    0.7500    0.0000 C   0  0  0  0  0  0  0  0  0  0  0  0
   15.5885   -0.0000    0.0000 C   0  0  0  0  0  0  0  0  0  0  0  0
   16.8875    0.7500    0.0000 C   0  0  0  0  0  0  0  0  0  0  0  0
   18.1865   -0.0000    0.0000 C   0  0  0  0  0  0  0  0  0  0  0  0
   19.4856    0.7500    0.0000 C   0  0  0  0  0  0  0  0  0  0  0  0
   20.7846   -0.0000    0.0000 C   0  0  0  0  0  0  0  0  0  0  0  0
   22.0836    0.7500    0.0000 C   0  0  0  0  0  0  0  0  0  0  0  0
   23.3827   -0.0000    0.0000 C   0  0  0  0  0  0  0  0  0  0  0  0
   24.1327    1.2990    0.0000 F   0  0  0  0  0  0  0  0  0  0  0  0
   22.6327   -1.2990    0.0000 F   0  0  0  0  0  0  0  0  0  0  0  0
   24.6817   -0.7500    0.0000 C   0  0  0  0  0  0  0  0  0  0  0  0
   23.9317   -2.0490    0.0000 F   0  0  0  0  0  0  0  0  0  0  0  0
   25.4317    0.5490    0.0000 F   0  0  0  0  0  0  0  0  0  0  0  0
   25.9808   -1.5000    0.0000 C   0  0  0  0  0  0  0  0  0  0  0  0
   26.7308   -0.2010    0.0000 F   0  0  0  0  0  0  0  0  0  0  0  0
   25.2308   -2.7990    0.0000 F   0  0  0  0  0  0  0  0  0  0  0  0
   27.2798   -2.2500    0.0000 C   0  0  0  0  0  0  0  0  0  0  0  0
   26.5298   -3.5490    0.0000 F   0  0  0  0  0  0  0  0  0  0  0  0
   28.0298   -0.9510    0.0000 F   0  0  0  0  0  0  0  0  0  0  0  0
   28.5788   -3.0000    0.0000 C   0  0  0  0  0  0  0  0  0  0  0  0
   29.3288   -1.7010    0.0000 F   0  0  0  0  0  0  0  0  0  0  0  0
   27.8288   -4.2990    0.0000 F   0  0  0  0  0  0  0  0  0  0  0  0
   29.8779   -3.7500    0.0000 C   0  0  0  0  0  0  0  0  0  0  0  0
   31.1769   -4.5000    0.0000 F   0  0  0  0  0  0  0  0  0  0  0  0
   29.1279   -5.0490    0.0000 F   0  0  0  0  0  0  0  0  0  0  0  0
   30.6279   -2.4510    0.0000 F   0  0  0  0  0  0  0  0  0  0  0  0
  1  2  1  0
  2  3  1  0
  3  4  1  0
  4  5  1  0
  5  6  1  0
  6  7  1  0
  7  8  1  0
  8  9  1  0
  9 10  1  0
 10 11  1  0
 11 12  1  0
 12 13  1  0
 13 14  1  0
 14 15  1  0
 15 16  1  0
 16 17  1  0
 17 18  1  0
 18 19  1  0
 19 20  1  0
 19 21  1  0
 19 22  1  0
 22 23  1  0
 22 24  1  0
 22 25  1  0
 25 26  1  0
 25 27  1  0
 25 28  1  0
 28 29  1  0
 28 30  1  0
 28 31  1  0
 31 32  1  0
 31 33  1  0
 31 34  1  0
 34 35  1  0
 34 36  1  0
 34 37  1  0
M  END
$$$$

     RDKit          2D

 25 23  0  0  0  0  0  0  0  0999 V2000
    0.0000    0.0000    0.0000 R   0  0  0  0  0  0  0  0  0  0  0  0
    1.2990    0.7500    0.0000 S   0  0  0  0  0  0  0  0  0  0  0  0
    2.5981   -0.0000    0.0000 C   0  0  0  0  0  0  0  0  0  0  0  0
    3.8971    0.7500    0.0000 C   0  0  0  0  0  0  0  0  0  0  0  0
    5.1962   -0.0000    0.0000 C   0  0  0  0  0  0  0  0  0  0  0  0
    5.9462    1.2990    0.0000 F   0  0  0  0  0  0  0  0  0  0  0  0
    4.4462   -1.2990    0.0000 F   0  0  0  0  0  0  0  0  0  0  0  0
    6.4952   -0.7500    0.0000 C   0  0  0  0  0  0  0  0  0  0  0  0
    7.7942   -1.5000    0.0000 F   0  0  0  0  0  0  0  0  0  0  0  0
    5.7452   -2.0490    0.0000 F   0  0  0  0  0  0  0  0  0  0  0  0
    7.2452    0.5490    0.0000 F   0  0  0  0  0  0  0  0  0  0  0  0
    0.0000    2.2990    0.0000 C   0  0  0  0  0  0  0  0  0  0  0  0
    1.2990    3.0490    0.0000 N   0  0  0  0  0  0  0  0  0  0  0  0
    2.5981    2.2990    0.0000 C   0  0  0  0  0  0  0  0  0  0  0  0
    1.2990    4.5490    0.0000 C   0  0  0  0  0  0  0  0  0  0  0  0
    2.5981    5.2990    0.0000 C   0  0  0  0  0  0  0  0  0  0  0  0
    2.5981    6.7990    0.0000 C   0  0  0  0  0  0  0  0  0  0  0  0
    3.8971    7.5490    0.0000 N   0  0  0  0  0  0  0  0  0  0  0  0
    3.8971    9.0490    0.0000 C   0  0  0  0  0  0  0  0  0  0  0  0
    2.5981    9.7990    0.0000 O   0  0  0  0  0  0  0  0  0  0  0  0
    5.1962    9.7990    0.0000 C   0  0  0  0  0  0  0  0  0  0  0  0
    5.1962   11.2990    0.0000 C   0  0  0  0  0  0  0  0  0  0  0  0
    6.4952   12.0490    0.0000 C   0  0  0  0  0  0  0  0  0  0  0  0
    7.7942   11.2990    0.0000 O   0  0  0  0  0  0  0  0  0  0  0  0
    6.4952   13.5490    0.0000 O   0  0  0  0  0  0  0  0  0  0  0  0
  1  2  1  0
  2  3  1  0
  3  4  1  0
  4  5  1  0
  5  6  1  0
  5  7  1  0
  5  8  1  0
  8  9  1  0
  8 10  1  0
  8 11  1  0
 12 13  1  0
 13 14  1  0
 13 15  1  0
 15 16  1  0
 16 17  1  0
 17 18  1  0
 18 19  1  0
 19 20  2  0
 19 21  1  0
 21 22  1  0
 22 23  1  0
 23 24  2  0
 23 25  1  0
M  END
$$$$

     RDKit          2D

 44 45  0  0  0  0  0  0  0  0999 V2000
    5.0260   -1.2990    0.0000 C   0  0  0  0  0  0  0  0  0  0  0  0
    3.5260   -1.2990    0.0000 N   0  0  0  0  0  0  0  0  0  0  0  0
    2.7760    0.0000    0.0000 C   0  0  0  0  0  0  0  0  0  0  0  0
    1.2760    0.0000    0.0000 C   0  0  0  0  0  0  0  0  0  0  0  0
    0.3943    1.2135    0.0000 C   0  0  0  0  0  0  0  0  0  0  0  0
   -1.0323    0.7500    0.0000 N   0  0  0  0  0  0  0  0  0  0  0  0
   -2.2458    1.6317    0.0000 C   0  0  0  0  0  0  0  0  0  0  0  0
   -2.0890    3.1235    0.0000 C   0  0  0  0  0  0  0  0  0  0  0  0
   -3.3025    4.0051    0.0000 C   0  0  0  0  0  0  0  0  0  0  0  0
   -3.1458    5.4969    0.0000 C   0  0  0  0  0  0  0  0  0  0  0  0
   -4.3593    6.3786    0.0000 C   0  0  0  0  0  0  0  0  0  0  0  0
   -4.2025    7.8704    0.0000 C   0  0  0  0  0  0  0  0  0  0  0  0
   -5.4160    8.7521    0.0000 N   0  0  0  0  0  0  0  0  0  0  0  0
   -6.8426    8.2885    0.0000 C   0  0  0  0  0  0  0  0  0  0  0  0
   -7.7243    9.5021    0.0000 C   0  0  0  0  0  0  0  0  0  0  0  0
   -9.2243    9.5021    0.0000 C   0  0  0  0  0  0  0  0  0  0  0  0
   -9.9743   10.8011    0.0000 N   0  0  0  0  0  0  0  0  0  0  0  0
  -11.4743   10.8011    0.0000 C   0  0  0  0  0  0  0  0  0  0  0  0
   -9.2243   12.1001    0.0000 S   0  0  0  0  0  0  0  0  0  0  0  0
   -7.9252   11.3501    0.0000 O   0  0  0  0  0  0  0  0  0  0  0  0
   -9.9581   12.4116    0.0000 O   0  0  0  0  0  0  0  0  0  0  0  0
   -8.4743   13.3992    0.0000 C   0  0  0  0  0  0  0  0  0  0  0  0
   -7.1752   12.6492    0.0000 F   0  0  0  0  0  0  0  0  0  0  0  0
   -7.7243   14.6982    0.0000 F   0  0  0  0  0  0  0  0  0  0  0  0
   -9.7733   14.1492    0.0000 C   0  0  0  0  0  0  0  0  0  0  0  0
  -11.0723   14.8992    0.0000 F   0  0  0  0  0  0  0  0  0  0  0  0
   -9.0233   15.4482    0.0000 F   0  0  0  0  0  0  0  0  0  0  0  0
  -10.3064   13.4418    0.0000 F   0  0  0  0  0  0  0  0  0  0  0  0
   -6.8426   10.7156    0.0000 O   0  0  0  0  0  0  0  0  0  0  0  0
   -5.4160   10.2521    0.0000 C   0  0  0  0  0  0  0  0  0  0  0  0
   -4.2025   11.1337    0.0000 O   0  0  0  0  0  0  0  0  0  0  0  0
   -1.0323   -0.7500    0.0000 C   0  0  0  0  0  0  0  0  0  0  0  0
   -2.2458   -1.6317    0.0000 O   0  0  0  0  0  0  0  0  0  0  0  0
    0.3943   -1.2135    0.0000 O   0  0  0  0  0  0  0  0  0  0  0  0
    2.7760   -2.5981    0.0000 S   0  0  0  0  0  0  0  0  0  0  0  0
    1.5780   -1.6953    0.0000 O   0  0  0  0  0  0  0  0  0  0  0  0
    4.0750   -3.3481    0.0000 O   0  0  0  0  0  0  0  0  0  0  0  0
    2.0260   -3.8971    0.0000 C   0  0  0  0  0  0  0  0  0  0  0  0
    3.3250   -4.6471    0.0000 F   0  0  0  0  0  0  0  0  0  0  0  0
    1.2760   -5.1962    0.0000 F   0  0  0  0  0  0  0  0  0  0  0  0
    0.7269   -3.1471    0.0000 C   0  0  0  0  0  0  0  0  0  0  0  0
   -0.5721   -2.3971    0.0000 F   0  0  0  0  0  0  0  0  0  0  0  0
   -0.0231   -4.4462    0.0000 F   0  0  0  0  0  0  0  0  0  0  0  0
    1.3130   -1.7663    0.0000 F   0  0  0  0  0  0  0  0  0  0  0  0
  1  2  1  0
  2  3  1  0
  3  4  1  0
  4  5  1  0
  5  6  1  0
  6  7  1  0
  7  8  1  0
  8  9  1  0
  9 10  1  0
 10 11  1  0
 11 12  1  0
 12 13  1  0
 13 14  1  0
 14 15  1  0
 15 16  1  0
 16 17  1  0
 17 18  1  0
 17 19  1  0
 19 20  2  0
 19 21  2  0
 19 22  1  0
 22 23  1  0
 22 24  1  0
 22 25  1  0
 25 26  1  0
 25 27  1  0
 25 28  1  0
 15 29  1  0
 29 30  1  0
 30 31  2  0
  6 32  1  0
 32 33  2  0
 32 34  1  0
  2 35  1  0
 35 36  2  0
 35 37  2  0
 35 38  1  0
 38 39  1  0
 38 40  1  0
 38 41  1  0
 41 42  1  0
 41 43  1  0
 41 44  1  0
 34  4  1  0
 30 13  1  0
M  END
$$$$

     RDKit          2D

 32 31  0  0  0  0  0  0  0  0999 V2000
    0.0000    0.0000    0.0000 C   0  0  0  0  0  0  0  0  0  0  0  0
    1.2990    0.7500    0.0000 C   0  0  0  0  0  0  0  0  0  0  0  0
    2.5981   -0.0000    0.0000 N   0  0  0  0  0  0  0  0  0  0  0  0
    3.8971    0.7500    0.0000 C   0  0  0  0  0  0  0  0  0  0  0  0
    5.1962   -0.0000    0.0000 C   0  0  0  0  0  0  0  0  0  0  0  0
    6.4952    0.7500    0.0000 O   0  0  0  0  0  0  0  0  0  0  0  0
    7.7942   -0.0000    0.0000 C   0  0  0  0  0  0  0  0  0  0  0  0
    9.0933    0.7500    0.0000 C   0  0  0  0  0  0  0  0  0  0  0  0
   10.3923   -0.0000    0.0000 C   0  0  0  0  0  0  0  0  0  0  0  0
   11.6913    0.7500    0.0000 O   0  0  0  0  0  0  0  0  0  0  0  0
    2.5981   -1.5000    0.0000 S   0  0  0  0  0  0  0  0  0  0  0  0
    1.8069   -1.4028    0.0000 O   0  0  0  0  0  0  0  0  0  0  0  0
    4.0981   -1.5000    0.0000 O   0  0  0  0  0  0  0  0  0  0  0  0
    2.5981   -3.0000    0.0000 C   0  0  0  0  0  0  0  0  0  0  0  0
    4.0981   -3.0000    0.0000 F   0  0  0  0  0  0  0  0  0  0  0  0
    2.5981   -4.5000    0.0000 F   0  0  0  0  0  0  0  0  0  0  0  0
    1.0981   -3.0000    0.0000 C   0  0  0  0  0  0  0  0  0  0  0  0
    0.9901   -2.1209    0.0000 F   0  0  0  0  0  0  0  0  0  0  0  0
    1.0981   -4.5000    0.0000 F   0  0  0  0  0  0  0  0  0  0  0  0
   -0.4019   -3.0000    0.0000 C   0  0  0  0  0  0  0  0  0  0  0  0
   -0.4019   -1.5000    0.0000 F   0  0  0  0  0  0  0  0  0  0  0  0
   -0.4019   -4.5000    0.0000 F   0  0  0  0  0  0  0  0  0  0  0  0
   -1.9019   -3.0000    0.0000 C   0  0  0  0  0  0  0  0  0  0  0  0
   -1.9019   -1.5000    0.0000 F   0  0  0  0  0  0  0  0  0  0  0  0
   -1.9019   -4.5000    0.0000 F   0  0  0  0  0  0  0  0  0  0  0  0
   -3.4019   -3.0000    0.0000 C   0  0  0  0  0  0  0  0  0  0  0  0
   -3.4019   -4.5000    0.0000 F   0  0  0  0  0  0  0  0  0  0  0  0
   -3.4019   -1.5000    0.0000 F   0  0  0  0  0  0  0  0  0  0  0  0
   -4.9019   -3.0000    0.0000 C   0  0  0  0  0  0  0  0  0  0  0  0
   -6.4019   -3.0000    0.0000 F   0  0  0  0  0  0  0  0  0  0  0  0
   -4.9019   -1.5000    0.0000 F   0  0  0  0  0  0  0  0  0  0  0  0
   -4.9019   -4.5000    0.0000 F   0  0  0  0  0  0  0  0  0  0  0  0
  1  2  1  0
  2  3  1  0
  3  4  1  0
  4  5  1  0
  5  6  1  0
  6  7  1  0
  7  8  1  0
  8  9  1  0
  9 10  1  0
  3 11  1  0
 11 12  2  0
 11 13  2  0
 11 14  1  0
 14 15  1  0
 14 16  1  0
 14 17  1  0
 17 18  1  0
 17 19  1  0
 17 20  1  0
 20 21  1  0
 20 22  1  0
 20 23  1  0
 23 24  1  0
 23 25  1  0
 23 26  1  0
 26 27  1  0
 26 28  1  0
 26 29  1  0
 29 30  1  0
 29 31  1  0
 29 32  1  0
M  END
$$$$

     RDKit          2D

 46 45  0  0  0  0  0  0  0  0999 V2000
   -0.0000    0.0000    0.0000 C   0  0  0  0  0  0  0  0  0  0  0  0
    1.2990    0.7500    0.0000 C   0  0  0  0  0  0  0  0  0  0  0  0
    2.5981    0.0000    0.0000 C   0  0  0  0  0  0  0  0  0  0  0  0
    3.8971    0.7500    0.0000 N   0  0  0  0  0  0  0  0  0  0  0  0
    5.1962   -0.0000    0.0000 C   0  0  0  0  0  0  0  0  0  0  0  0
    6.4952    0.7500    0.0000 C   0  0  0  0  0  0  0  0  0  0  0  0
    7.7942   -0.0000    0.0000 O   0  0  0  0  0  0  0  0  0  0  0  0
    9.0933    0.7500    0.0000 C   0  0  0  0  0  0  0  0  0  0  0  0
   10.3923   -0.0000    0.0000 C   0  0  0  0  0  0  0  0  0  0  0  0
   11.6913    0.7500    0.0000 O   0  0  0  0  0  0  0  0  0  0  0  0
   12.9904   -0.0000    0.0000 C   0  0  0  0  0  0  0  0  0  0  0  0
   14.2894    0.7500    0.0000 C   0  0  0  0  0  0  0  0  0  0  0  0
   15.5885   -0.0000    0.0000 C   0  0  0  0  0  0  0  0  0  0  0  0
   16.8875    0.7500    0.0000 C   0  0  0  0  0  0  0  0  0  0  0  0
   18.1865   -0.0000    0.0000 S   0  0  0  0  0  0  0  0  0  0  0  0
   18.9365    1.2990    0.0000 O   0  0  0  0  0  0  0  0  0  0  0  0
   17.4365   -1.2990    0.0000 O   0  0  0  0  0  0  0  0  0  0  0  0
   19.4856   -0.7500    0.0000 O   0  0  0  0  0  0  0  0  0  0  0  0
    3.8971    2.2500    0.0000 S   0  0  0  0  0  0  0  0  0  0  0  0
    3.1059    2.1528    0.0000 O   0  0  0  0  0  0  0  0  0  0  0  0
    5.3971    2.2500    0.0000 O   0  0  0  0  0  0  0  0  0  0  0  0
    3.8971    3.7500    0.0000 C   0  0  0  0  0  0  0  0  0  0  0  0
    5.3971    3.7500    0.0000 F   0  0  0  0  0  0  0  0  0  0  0  0
    3.8971    5.2500    0.0000 F   0  0  0  0  0  0  0  0  0  0  0  0
    2.3971    3.7500    0.0000 C   0  0  0  0  0  0  0  0  0  0  0  0
    2.3971    5.2500    0.0000 F   0  0  0  0  0  0  0  0  0  0  0  0
    2.2891    2.8709    0.0000 F   0  0  0  0  0  0  0  0  0  0  0  0
    0.8971    3.7500    0.0000 C   0  0  0  0  0  0  0  0  0  0  0  0
    0.8971    5.2500    0.0000 F   0  0  0  0  0  0  0  0  0  0  0  0
    0.8971    2.2500    0.0000 F   0  0  0  0  0  0  0  0  0  0  0  0
   -0.6029    3.7500    0.0000 C   0  0  0  0  0  0  0  0  0  0  0  0
   -0.6029    5.2500    0.0000 F   0  0  0  0  0  0  0  0  0  0  0  0
   -0.6029    2.2500    0.0000 F   0  0  0  0  0  0  0  0  0  0  0  0
   -2.1029    3.7500    0.0000 C   0  0  0  0  0  0  0  0  0  0  0  0
   -2.1029    5.2500    0.0000 F   0  0  0  0  0  0  0  0  0  0  0  0
   -2.1029    2.2500    0.0000 F   0  0  0  0  0  0  0  0  0  0  0  0
   -3.6029    3.7500    0.0000 C   0  0  0  0  0  0  0  0  0  0  0  0
   -3.6029    2.2500    0.0000 F   0  0  0  0  0  0  0  0  0  0  0  0
   -3.6029    5.2500    0.0000 F   0  0  0  0  0  0  0  0  0  0  0  0
   -5.1029    3.7500    0.0000 C   0  0  0  0  0  0  0  0  0  0  0  0
   -5.1029    5.2500    0.0000 F   0  0  0  0  0  0  0  0  0  0  0  0
   -5.1029    2.2500    0.0000 F   0  0  0  0  0  0  0  0  0  0  0  0
   -6.6029    3.7500    0.0000 C   0  0  0  0  0  0  0  0  0  0  0  0
   -8.1029    3.7500    0.0000 F   0  0  0  0  0  0  0  0  0  0  0  0
   -6.6029    2.2500    0.0000 F   0  0  0  0  0  0  0  0  0  0  0  0
   -6.6029    5.2500    0.0000 F   0  0  0  0  0  0  0  0  0  0  0  0
  1  2  1  0
  2  3  1  0
  3  4  1  0
  4  5  1  0
  5  6  1  0
  6  7  1  0
  7  8  1  0
  8  9  1  0
  9 10  1  0
 10 11  1  0
 11 12  1  0
 12 13  1  0
 13 14  1  0
 14 15  1  0
 15 16  2  0
 15 17  2  0
 15 18  1  0
  4 19  1  0
 19 20  2  0
 19 21  2  0
 19 22  1  0
 22 23  1  0
 22 24  1  0
 22 25  1  0
 25 26  1  0
 25 27  1  0
 25 28  1  0
 28 29  1  0
 28 30  1  0
 28 31  1  0
 31 32  1  0
 31 33  1  0
 31 34  1  0
 34 35  1  0
 34 36  1  0
 34 37  1  0
 37 38  1  0
 37 39  1  0
 37 40  1  0
 40 41  1  0
 40 42  1  0
 40 43  1  0
 43 44  1  0
 43 45  1  0
 43 46  1  0
M  END
$$$$

     RDKit          2D

 43 40  0  0  0  0  0  0  0  0999 V2000
    0.0000    2.5000    0.0000 R   0  0  0  0  0  0  0  0  0  0  0  0
    0.0000    3.5000    0.0000 R   0  0  0  0  0  0  0  0  0  0  0  0
   11.0490  -10.9413    0.0000 R   0  0  0  0  0  0  0  0  0  0  0  0
    9.7500  -11.6913    0.0000 C   0  0  0  0  0  0  0  0  0  0  0  0
    8.4510  -12.4413    0.0000 R   0  0  0  0  0  0  0  0  0  0  0  0
   10.5000  -12.9904    0.0000 R   0  0  0  0  0  0  0  0  0  0  0  0
    9.0000  -10.3923    0.0000 C   0  0  0  0  0  0  0  0  0  0  0  0
    7.7010  -11.1423    0.0000 R   0  0  0  0  0  0  0  0  0  0  0  0
   10.2990   -9.6423    0.0000 R   0  0  0  0  0  0  0  0  0  0  0  0
    8.2500   -9.0933    0.0000 C   0  0  0  0  0  0  0  0  0  0  0  0
    9.5490   -8.3433    0.0000 R   0  0  0  0  0  0  0  0  0  0  0  0
    6.9510   -9.8433    0.0000 R   0  0  0  0  0  0  0  0  0  0  0  0
    7.5000   -7.7942    0.0000 C   0  0  0  0  0  0  0  0  0  0  0  0
    6.2010   -8.5442    0.0000 R   0  0  0  0  0  0  0  0  0  0  0  0
    8.7990   -7.0442    0.0000 R   0  0  0  0  0  0  0  0  0  0  0  0
    6.7500   -6.4952    0.0000 C   0  0  0  0  0  0  0  0  0  0  0  0
    8.0490   -5.7452    0.0000 R   0  0  0  0  0  0  0  0  0  0  0  0
    5.4510   -7.2452    0.0000 R   0  0  0  0  0  0  0  0  0  0  0  0
    6.0000   -5.1962    0.0000 C   0  0  0  0  0  0  0  0  0  0  0  0
    4.7010   -5.9462    0.0000 R   0  0  0  0  0  0  0  0  0  0  0  0
    7.2990   -4.4462    0.0000 R   0  0  0  0  0  0  0  0  0  0  0  0
    5.2500   -3.8971    0.0000 C   0  0  0  0  0  0  0  0  0  0  0  0
    6.5490   -3.1471    0.0000 R   0  0  0  0  0  0  0  0  0  0  0  0
    3.9510   -4.6471    0.0000 R   0  0  0  0  0  0  0  0  0  0  0  0
    4.5000   -2.5981    0.0000 C   0  0  0  0  0  0  0  0  0  0  0  0
    3.2010   -3.3481    0.0000 R   0  0  0  0  0  0  0  0  0  0  0  0
    5.7990   -1.8481    0.0000 R   0  0  0  0  0  0  0  0  0  0  0  0
    3.7500   -1.2990    0.0000 C   0  0  0  0  0  0  0  0  0  0  0  0
    5.0490   -0.5490    0.0000 R   0  0  0  0  0  0  0  0  0  0  0  0
    2.4510   -2.0490    0.0000 R   0  0  0  0  0  0  0  0  0  0  0  0
    3.0000    0.0000    0.0000 O   0  0  0  0  0  0  0  0  0  0  0  0
    1.5000    0.0000    0.0000 C   0  0  0  0  0  0  0  0  0  0  0  0
    0.7500   -1.2990    0.0000 C   0  0  0  0  0  0  0  0  0  0  0  0
   -0.7500   -1.2990    0.0000 C   0  0  0  0  0  0  0  0  0  0  0  0
   -1.5000    0.0000    0.0000 C   0  0  0  0  0  0  0  0  0  0  0  0
   -3.0000    0.0000    0.0000 S   0  0  0  0  0  0  0  0  0  0  0  0
   -4.5000    0.0000    0.0000 O   0  0  0  0  0  0  0  0  0  0  0  0
   -3.0000    1.5000    0.0000 O   0  0  0  0  0  0  0  0  0  0  0  0
   -3.0000   -1.5000    0.0000 Cl  0  0  0  0  0  0  0  0  0  0  0  0
   -0.7500    1.2990    0.0000 C   0  0  0  0  0  0  0  0  0  0  0  0
    0.7500    1.2990    0.0000 C   0  0  0  0  0  0  0  0  0  0  0  0
   12.0490    0.0000    0.0000 R   0  0  0  0  0  0  0  0  0  0  0  0
   13.3481    0.7500    0.0000 F   0  0  0  0  0  0  0  0  0  0  0  0
  3  4  1  0
  4  5  1  0
  4  6  1  0
  4  7  1  0
  7  8  1  0
  7  9  1  0
  7 10  1  0
 10 11  1  0
 10 12  1  0
 10 13  1  0
 13 14  1  0
 13 15  1  0
 13 16  1  0
 16 17  1  0
 16 18  1  0
 16 19  1  0
 19 20  1  0
 19 21  1  0
 19 22  1  0
 22 23  1  0
 22 24  1  0
 22 25  1  0
 25 26  1  0
 25 27  1  0
 25 28  1  0
 28 29  1  0
 28 30  1  0
 28 31  1  0
 31 32  1  0
 32 33  2  0
 33 34  1  0
 34 35  2  0
 35 36  1  0
 36 37  2  0
 36 38  2  0
 36 39  1  0
 35 40  1  0
 40 41  2  0
 42 43  1  0
 41 32  1  0
M  END
$$$$

     RDKit          2D

 30 29  0  0  0  0  0  0  0  0999 V2000
    0.0000    0.0000    0.0000 C   0  0  0  0  0  0  0  0  0  0  0  0
    1.2990    0.7500    0.0000 C   0  0  0  0  0  0  0  0  0  0  0  0
    2.5981   -0.0000    0.0000 O   0  0  0  0  0  0  0  0  0  0  0  0
    3.8971    0.7500    0.0000 C   0  0  0  0  0  0  0  0  0  0  0  0
    3.8971    2.2500    0.0000 O   0  0  0  0  0  0  0  0  0  0  0  0
    5.1962   -0.0000    0.0000 C   0  0  0  0  0  0  0  0  0  0  0  0
    6.4952    0.7500    0.0000 C   0  0  0  0  0  0  0  0  0  0  0  0
    7.7942   -0.0000    0.0000 C   0  0  0  0  0  0  0  0  0  0  0  0
    9.0933    0.7500    0.0000 C   0  0  0  0  0  0  0  0  0  0  0  0
    9.8433   -0.5490    0.0000 F   0  0  0  0  0  0  0  0  0  0  0  0
    8.3433    2.0490    0.0000 F   0  0  0  0  0  0  0  0  0  0  0  0
   10.3923    1.5000    0.0000 C   0  0  0  0  0  0  0  0  0  0  0  0
    9.6423    2.7990    0.0000 F   0  0  0  0  0  0  0  0  0  0  0  0
   11.1423    0.2010    0.0000 F   0  0  0  0  0  0  0  0  0  0  0  0
   11.6913    2.2500    0.0000 C   0  0  0  0  0  0  0  0  0  0  0  0
   12.4413    0.9510    0.0000 F   0  0  0  0  0  0  0  0  0  0  0  0
   10.9413    3.5490    0.0000 F   0  0  0  0  0  0  0  0  0  0  0  0
   12.9904    3.0000    0.0000 C   0  0  0  0  0  0  0  0  0  0  0  0
   12.2404    4.2990    0.0000 F   0  0  0  0  0  0  0  0  0  0  0  0
   13.7404    1.7010    0.0000 F   0  0  0  0  0  0  0  0  0  0  0  0
   14.2894    3.7500    0.0000 C   0  0  0  0  0  0  0  0  0  0  0  0
   15.0394    2.4510    0.0000 F   0  0  0  0  0  0  0  0  0  0  0  0
   13.5394    5.0490    0.0000 F   0  0  0  0  0  0  0  0  0  0  0  0
   15.5885    4.5000    0.0000 C   0  0  0  0  0  0  0  0  0  0  0  0
   14.8385    5.7990    0.0000 F   0  0  0  0  0  0  0  0  0  0  0  0
   16.3385    3.2010    0.0000 F   0  0  0  0  0  0  0  0  0  0  0  0
   16.8875    5.2500    0.0000 C   0  0  0  0  0  0  0  0  0  0  0  0
   18.1865    6.0000    0.0000 F   0  0  0  0  0  0  0  0  0  0  0  0
   17.6375    3.9510    0.0000 F   0  0  0  0  0  0  0  0  0  0  0  0
   16.1375    6.5490    0.0000 F   0  0  0  0  0  0  0  0  0  0  0  0
  1  2  2  0
  2  3  1  0
  3  4  1  0
  4  5  2  0
  4  6  1  0
  6  7  1  0
  7  8  1  0
  8  9  1  0
  9 10  1  0
  9 11  1  0
  9 12  1  0
 12 13  1  0
 12 14  1  0
 12 15  1  0
 15 16  1  0
 15 17  1  0
 15 18  1  0
 18 19  1  0
 18 20  1  0
 18 21  1  0
 21 22  1  0
 21 23  1  0
 21 24  1  0
 24 25  1  0
 24 26  1  0
 24 27  1  0
 27 28  1  0
 27 29  1  0
 27 30  1  0
M  END
$$$$

     RDKit          2D

 17 16  0  0  0  0  0  0  0  0999 V2000
    0.0000    0.0000    0.0000 C   0  0  0  0  0  0  0  0  0  0  0  0
    1.2990    0.7500    0.0000 C   0  0  0  0  0  0  0  0  0  0  0  0
    1.2990    2.2500    0.0000 F   0  0  0  0  0  0  0  0  0  0  0  0
    2.5981   -0.0000    0.0000 C   0  0  0  0  0  0  0  0  0  0  0  0
    2.5981   -1.5000    0.0000 O   0  0  0  0  0  0  0  0  0  0  0  0
    3.8971    0.7500    0.0000 O   0  0  0  0  0  0  0  0  0  0  0  0
    5.1962   -0.0000    0.0000 C   0  0  0  0  0  0  0  0  0  0  0  0
    6.4952    0.7500    0.0000 C   0  0  0  0  0  0  0  0  0  0  0  0
    7.2452   -0.5490    0.0000 F   0  0  0  0  0  0  0  0  0  0  0  0
    5.7452    2.0490    0.0000 F   0  0  0  0  0  0  0  0  0  0  0  0
    7.7942    1.5000    0.0000 C   0  0  0  0  0  0  0  0  0  0  0  0
    7.0442    2.7990    0.0000 F   0  0  0  0  0  0  0  0  0  0  0  0
    8.5442    0.2010    0.0000 F   0  0  0  0  0  0  0  0  0  0  0  0
    9.0933    2.2500    0.0000 C   0  0  0  0  0  0  0  0  0  0  0  0
   10.3923    3.0000    0.0000 F   0  0  0  0  0  0  0  0  0  0  0  0
    9.8433    0.9510    0.0000 F   0  0  0  0  0  0  0  0  0  0  0  0
    8.3433    3.5490    0.0000 F   0  0  0  0  0  0  0  0  0  0  0  0
  1  2  2  0
  2  3  1  0
  2  4  1  0
  4  5  2  0
  4  6  1  0
  6  7  1  0
  7  8  1  0
  8  9  1  0
  8 10  1  0
  8 11  1  0
 11 12  1  0
 11 13  1  0
 11 14  1  0
 14 15  1  0
 14 16  1  0
 14 17  1  0
M  END
$$$$

     RDKit          2D

 47 46  0  0  0  0  0  0  0  0999 V2000
    0.0000    0.0000    0.0000 C   0  0  0  0  0  0  0  0  0  0  0  0
    1.2990    0.7500    0.0000 C   0  0  0  0  0  0  0  0  0  0  0  0
    2.5981   -0.0000    0.0000 C   0  0  0  0  0  0  0  0  0  0  0  0
    2.5981   -1.5000    0.0000 O   0  0  0  0  0  0  0  0  0  0  0  0
    3.8971    0.7500    0.0000 O   0  0  0  0  0  0  0  0  0  0  0  0
    5.1962   -0.0000    0.0000 C   0  0  0  0  0  0  0  0  0  0  0  0
    6.4952    0.7500    0.0000 C   0  0  0  0  0  0  0  0  0  0  0  0
    7.7942   -0.0000    0.0000 C   0  0  0  0  0  0  0  0  0  0  0  0
    8.5442    1.2990    0.0000 F   0  0  0  0  0  0  0  0  0  0  0  0
    7.0442   -1.2990    0.0000 F   0  0  0  0  0  0  0  0  0  0  0  0
    9.0933   -0.7500    0.0000 C   0  0  0  0  0  0  0  0  0  0  0  0
    8.3433   -2.0490    0.0000 F   0  0  0  0  0  0  0  0  0  0  0  0
    9.8433    0.5490    0.0000 F   0  0  0  0  0  0  0  0  0  0  0  0
   10.3923   -1.5000    0.0000 C   0  0  0  0  0  0  0  0  0  0  0  0
   11.1423   -0.2010    0.0000 F   0  0  0  0  0  0  0  0  0  0  0  0
    9.6423   -2.7990    0.0000 F   0  0  0  0  0  0  0  0  0  0  0  0
   11.6913   -2.2500    0.0000 C   0  0  0  0  0  0  0  0  0  0  0  0
   10.9413   -3.5490    0.0000 F   0  0  0  0  0  0  0  0  0  0  0  0
   12.4413   -0.9510    0.0000 F   0  0  0  0  0  0  0  0  0  0  0  0
   12.9904   -3.0000    0.0000 C   0  0  0  0  0  0  0  0  0  0  0  0
   13.7404   -1.7010    0.0000 F   0  0  0  0  0  0  0  0  0  0  0  0
   12.2404   -4.2990    0.0000 F   0  0  0  0  0  0  0  0  0  0  0  0
   14.2894   -3.7500    0.0000 C   0  0  0  0  0  0  0  0  0  0  0  0
   15.0394   -2.4510    0.0000 F   0  0  0  0  0  0  0  0  0  0  0  0
   13.5394   -5.0490    0.0000 F   0  0  0  0  0  0  0  0  0  0  0  0
   15.5885   -4.5000    0.0000 C   0  0  0  0  0  0  0  0  0  0  0  0
   14.8385   -5.7990    0.0000 F   0  0  0  0  0  0  0  0  0  0  0  0
   16.3385   -3.2010    0.0000 F   0  0  0  0  0  0  0  0  0  0  0  0
   16.8875   -5.2500    0.0000 C   0  0  0  0  0  0  0  0  0  0  0  0
   17.6375   -3.9510    0.0000 F   0  0  0  0  0  0  0  0  0  0  0  0
   16.1375   -6.5490    0.0000 F   0  0  0  0  0  0  0  0  0  0  0  0
   18.1865   -6.0000    0.0000 C   0  0  0  0  0  0  0  0  0  0  0  0
   17.4365   -7.2990    0.0000 F   0  0  0  0  0  0  0  0  0  0  0  0
   18.9365   -4.7010    0.0000 F   0  0  0  0  0  0  0  0  0  0  0  0
   19.4856   -6.7500    0.0000 C   0  0  0  0  0  0  0  0  0  0  0  0
   19.8316   -5.9347    0.0000 F   0  0  0  0  0  0  0  0  0  0  0  0
   18.7356   -8.0490    0.0000 F   0  0  0  0  0  0  0  0  0  0  0  0
   20.7846   -7.5000    0.0000 C   0  0  0  0  0  0  0  0  0  0  0  0
   20.0346   -8.7990    0.0000 F   0  0  0  0  0  0  0  0  0  0  0  0
   22.0836   -8.2500    0.0000 C   0  0  0  0  0  0  0  0  0  0  0  0
   23.3827   -9.0000    0.0000 F   0  0  0  0  0  0  0  0  0  0  0  0
   21.3336   -9.5490    0.0000 F   0  0  0  0  0  0  0  0  0  0  0  0
   22.6167   -7.5426    0.0000 F   0  0  0  0  0  0  0  0  0  0  0  0
   21.5346   -6.2010    0.0000 C   0  0  0  0  0  0  0  0  0  0  0  0
   22.2846   -4.9019    0.0000 F   0  0  0  0  0  0  0  0  0  0  0  0
   22.3499   -6.5470    0.0000 F   0  0  0  0  0  0  0  0  0  0  0  0
   20.8272   -5.6679    0.0000 Cl  0  0  0  0  0  0  0  0  0  0  0  0
  1  2  2  0
  2  3  1  0
  3  4  2  0
  3  5  1  0
  5  6  1  0
  6  7  1  0
  7  8  1  0
  8  9  1  0
  8 10  1  0
  8 11  1  0
 11 12  1  0
 11 13  1  0
 11 14  1  0
 14 15  1  0
 14 16  1  0
 14 17  1  0
 17 18  1  0
 17 19  1  0
 17 20  1  0
 20 21  1  0
 20 22  1  0
 20 23  1  0
 23 24  1  0
 23 25  1  0
 23 26  1  0
 26 27  1  0
 26 28  1  0
 26 29  1  0
 29 30  1  0
 29 31  1  0
 29 32  1  0
 32 33  1  0
 32 34  1  0
 32 35  1  0
 35 36  1  0
 35 37  1  0
 35 38  1  0
 38 39  1  0
 38 40  1  0
 40 41  1  0
 40 42  1  0
 40 43  1  0
 38 44  1  0
 44 45  1  0
 44 46  1  0
 44 47  1  0
M  END
$$$$

     RDKit          2D

 39 39  0  0  0  0  0  0  0  0999 V2000
    6.7500    9.0933    0.0000 C   0  0  0  0  0  0  0  0  0  0  0  0
    6.0000    7.7942    0.0000 C   0  0  0  0  0  0  0  0  0  0  0  0
    6.7500    6.4952    0.0000 C   0  0  0  0  0  0  0  0  0  0  0  0
    8.2500    6.4952    0.0000 O   0  0  0  0  0  0  0  0  0  0  0  0
    6.0000    5.1962    0.0000 O   0  0  0  0  0  0  0  0  0  0  0  0
    6.7500    3.8971    0.0000 C   0  0  0  0  0  0  0  0  0  0  0  0
    6.0000    2.5981    0.0000 C   0  0  0  0  0  0  0  0  0  0  0  0
    6.7500    1.2990    0.0000 N   0  0  0  0  0  0  0  0  0  0  0  0
    8.2500    1.2990    0.0000 C   0  0  0  0  0  0  0  0  0  0  0  0
    6.0000   -0.0000    0.0000 C   0  0  0  0  0  0  0  0  0  0  0  0
    6.7500   -1.2990    0.0000 O   0  0  0  0  0  0  0  0  0  0  0  0
    4.5000   -0.0000    0.0000 C   0  0  0  0  0  0  0  0  0  0  0  0
    4.5000    1.5000    0.0000 F   0  0  0  0  0  0  0  0  0  0  0  0
    4.5000   -1.5000    0.0000 F   0  0  0  0  0  0  0  0  0  0  0  0
    3.0000   -0.0000    0.0000 C   0  0  0  0  0  0  0  0  0  0  0  0
    3.1828   -1.4888    0.0000 F   0  0  0  0  0  0  0  0  0  0  0  0
    3.1828    1.4888    0.0000 F   0  0  0  0  0  0  0  0  0  0  0  0
    1.5000    0.0000    0.0000 N   0  0  0  0  0  0  0  0  0  0  0  0
    0.7500   -1.2990    0.0000 C   0  0  0  0  0  0  0  0  0  0  0  0
    2.0865   -1.9801    0.0000 F   0  0  0  0  0  0  0  0  0  0  0  0
    0.4895   -2.7762    0.0000 F   0  0  0  0  0  0  0  0  0  0  0  0
   -0.7500   -1.2990    0.0000 C   0  0  0  0  0  0  0  0  0  0  0  0
   -0.4895   -2.7762    0.0000 F   0  0  0  0  0  0  0  0  0  0  0  0
   -1.4603   -1.6610    0.0000 F   0  0  0  0  0  0  0  0  0  0  0  0
   -1.5000    0.0000    0.0000 C   0  0  0  0  0  0  0  0  0  0  0  0
   -2.6491    0.9642    0.0000 F   0  0  0  0  0  0  0  0  0  0  0  0
   -2.6491   -0.9642    0.0000 C   0  0  0  0  0  0  0  0  0  0  0  0
   -3.6132    0.1849    0.0000 F   0  0  0  0  0  0  0  0  0  0  0  0
   -2.2149   -1.6327    0.0000 F   0  0  0  0  0  0  0  0  0  0  0  0
   -3.7981   -1.9284    0.0000 C   0  0  0  0  0  0  0  0  0  0  0  0
   -4.9472   -2.8925    0.0000 F   0  0  0  0  0  0  0  0  0  0  0  0
   -4.7623   -0.7793    0.0000 F   0  0  0  0  0  0  0  0  0  0  0  0
   -2.8340   -3.0774    0.0000 F   0  0  0  0  0  0  0  0  0  0  0  0
   -0.7500    1.2990    0.0000 C   0  0  0  0  0  0  0  0  0  0  0  0
   -2.1595    1.8121    0.0000 F   0  0  0  0  0  0  0  0  0  0  0  0
   -0.4895    2.7762    0.0000 F   0  0  0  0  0  0  0  0  0  0  0  0
    0.7500    1.2990    0.0000 C   0  0  0  0  0  0  0  0  0  0  0  0
    0.4895    2.7762    0.0000 F   0  0  0  0  0  0  0  0  0  0  0  0
    2.0865    1.9801    0.0000 F   0  0  0  0  0  0  0  0  0  0  0  0
  1  2  2  0
  2  3  1  0
  3  4  2  0
  3  5  1  0
  5  6  1  0
  6  7  1  0
  7  8  1  0
  8  9  1  0
  8 10  1  0
 10 11  2  0
 10 12  1  0
 12 13  1  0
 12 14  1  0
 12 15  1  0
 15 16  1  0
 15 17  1  0
 15 18  1  0
 18 19  1  0
 19 20  1  0
 19 21  1  0
 19 22  1  0
 22 23  1  0
 22 24  1  0
 22 25  1  0
 25 26  1  0
 25 27  1  0
 27 28  1  0
 27 29  1  0
 27 30  1  0
 30 31  1  0
 30 32  1  0
 30 33  1  0
 25 34  1  0
 34 35  1  0
 34 36  1  0
 34 37  1  0
 37 38  1  0
 37 39  1  0
 37 18  1  0
M  END
$$$$

     RDKit          2D

 13 12  0  0  0  0  0  0  0  0999 V2000
   -0.0000   -1.5000    0.0000 O   0  0  0  0  0  0  0  0  0  0  0  0
    0.0000    0.0000    0.0000 C   0  0  0  0  0  0  0  0  0  0  0  0
   -1.2990    0.7500    0.0000 O   0  0  0  0  0  0  0  0  0  0  0  0
    1.2990    0.7500    0.0000 C   0  0  0  0  0  0  0  0  0  0  0  0
    2.0490   -0.5490    0.0000 F   0  0  0  0  0  0  0  0  0  0  0  0
    0.5490    2.0490    0.0000 F   0  0  0  0  0  0  0  0  0  0  0  0
    2.5981    1.5000    0.0000 C   0  0  0  0  0  0  0  0  0  0  0  0
    1.8481    2.7990    0.0000 F   0  0  0  0  0  0  0  0  0  0  0  0
    3.3481    0.2010    0.0000 F   0  0  0  0  0  0  0  0  0  0  0  0
    3.8971    2.2500    0.0000 C   0  0  0  0  0  0  0  0  0  0  0  0
    5.1962    3.0000    0.0000 F   0  0  0  0  0  0  0  0  0  0  0  0
    4.6471    0.9510    0.0000 F   0  0  0  0  0  0  0  0  0  0  0  0
    3.1471    3.5490    0.0000 F   0  0  0  0  0  0  0  0  0  0  0  0
  1  2  2  0
  2  3  1  0
  2  4  1  0
  4  5  1  0
  4  6  1  0
  4  7  1  0
  7  8  1  0
  7  9  1  0
  7 10  1  0
 10 11  1  0
 10 12  1  0
 10 13  1  0
M  ISO  4   2  13   4  13   7  13  10  13
M  END
$$$$

     RDKit          2D

 37 36  0  0  0  0  0  0  0  0999 V2000
   -0.0000    0.0000    0.0000 C   0  0  0  0  0  0  0  0  0  0  0  0
    1.2990    0.7500    0.0000 C   0  0  0  0  0  0  0  0  0  0  0  0
    2.5981   -0.0000    0.0000 C   0  0  0  0  0  0  0  0  0  0  0  0
    3.8971    0.7500    0.0000 C   0  0  0  0  0  0  0  0  0  0  0  0
    5.1962    0.0000    0.0000 N   0  0  0  0  0  0  0  0  0  0  0  0
    6.4952    0.7500    0.0000 C   0  0  0  0  0  0  0  0  0  0  0  0
    7.7942    0.0000    0.0000 C   0  0  0  0  0  0  0  0  0  0  0  0
    9.0933    0.7500    0.0000 C   0  0  0  0  0  0  0  0  0  0  0  0
   10.3923   -0.0000    0.0000 C   0  0  0  0  0  0  0  0  0  0  0  0
    5.1962   -1.5000    0.0000 S   0  0  0  0  0  0  0  0  0  0  0  0
    4.4049   -1.4028    0.0000 O   0  0  0  0  0  0  0  0  0  0  0  0
    6.6962   -1.5000    0.0000 O   0  0  0  0  0  0  0  0  0  0  0  0
    5.1962   -3.0000    0.0000 C   0  0  0  0  0  0  0  0  0  0  0  0
    6.6962   -3.0000    0.0000 F   0  0  0  0  0  0  0  0  0  0  0  0
    5.1962   -4.5000    0.0000 F   0  0  0  0  0  0  0  0  0  0  0  0
    3.6962   -3.0000    0.0000 C   0  0  0  0  0  0  0  0  0  0  0  0
    3.5882   -2.1209    0.0000 F   0  0  0  0  0  0  0  0  0  0  0  0
    3.6962   -4.5000    0.0000 F   0  0  0  0  0  0  0  0  0  0  0  0
    2.1962   -3.0000    0.0000 C   0  0  0  0  0  0  0  0  0  0  0  0
    2.1962   -1.5000    0.0000 F   0  0  0  0  0  0  0  0  0  0  0  0
    2.1962   -4.5000    0.0000 F   0  0  0  0  0  0  0  0  0  0  0  0
    0.6962   -3.0000    0.0000 C   0  0  0  0  0  0  0  0  0  0  0  0
    0.6962   -1.5000    0.0000 F   0  0  0  0  0  0  0  0  0  0  0  0
    0.6962   -4.5000    0.0000 F   0  0  0  0  0  0  0  0  0  0  0  0
   -0.8038   -3.0000    0.0000 C   0  0  0  0  0  0  0  0  0  0  0  0
   -0.8038   -1.5000    0.0000 F   0  0  0  0  0  0  0  0  0  0  0  0
   -0.8038   -4.5000    0.0000 F   0  0  0  0  0  0  0  0  0  0  0  0
   -2.3038   -3.0000    0.0000 C   0  0  0  0  0  0  0  0  0  0  0  0
   -2.3038   -4.5000    0.0000 F   0  0  0  0  0  0  0  0  0  0  0  0
   -2.3038   -1.5000    0.0000 F   0  0  0  0  0  0  0  0  0  0  0  0
   -3.8038   -3.0000    0.0000 C   0  0  0  0  0  0  0  0  0  0  0  0
   -3.8038   -1.5000    0.0000 F   0  0  0  0  0  0  0  0  0  0  0  0
   -3.8038   -4.5000    0.0000 F   0  0  0  0  0  0  0  0  0  0  0  0
   -5.3038   -3.0000    0.0000 C   0  0  0  0  0  0  0  0  0  0  0  0
   -6.8038   -3.0000    0.0000 F   0  0  0  0  0  0  0  0  0  0  0  0
   -5.3038   -4.5000    0.0000 F   0  0  0  0  0  0  0  0  0  0  0  0
   -5.3038   -1.5000    0.0000 F   0  0  0  0  0  0  0  0  0  0  0  0
  1  2  1  0
  2  3  1  0
  3  4  1  0
  4  5  1  0
  5  6  1  0
  6  7  1  0
  7  8  1  0
  8  9  1  0
  5 10  1  0
 10 11  2  0
 10 12  2  0
 10 13  1  0
 13 14  1  0
 13 15  1  0
 13 16  1  0
 16 17  1  0
 16 18  1  0
 16 19  1  0
 19 20  1  0
 19 21  1  0
 19 22  1  0
 22 23  1  0
 22 24  1  0
 22 25  1  0
 25 26  1  0
 25 27  1  0
 25 28  1  0
 28 29  1  0
 28 30  1  0
 28 31  1  0
 31 32  1  0
 31 33  1  0
 31 34  1  0
 34 35  1  0
 34 36  1  0
 34 37  1  0
M  END
$$$$

     RDKit          2D

 31 30  0  0  0  0  0  0  0  0999 V2000
   -1.5000    1.5000    0.0000 O   0  0  0  0  0  0  0  0  0  0  0  0
   -0.0000    1.5000    0.0000 S   0  0  0  0  0  0  0  0  0  0  0  0
    0.7912    1.5972    0.0000 O   0  0  0  0  0  0  0  0  0  0  0  0
   -0.0000    3.0000    0.0000 O   0  0  0  0  0  0  0  0  0  0  0  0
    0.0000    0.0000    0.0000 C   0  0  0  0  0  0  0  0  0  0  0  0
   -1.5000   -0.0000    0.0000 F   0  0  0  0  0  0  0  0  0  0  0  0
    0.0000   -1.5000    0.0000 F   0  0  0  0  0  0  0  0  0  0  0  0
    1.5000    0.0000    0.0000 C   0  0  0  0  0  0  0  0  0  0  0  0
    1.6080    0.8791    0.0000 F   0  0  0  0  0  0  0  0  0  0  0  0
    1.5000   -1.5000    0.0000 F   0  0  0  0  0  0  0  0  0  0  0  0
    3.0000    0.0000    0.0000 C   0  0  0  0  0  0  0  0  0  0  0  0
    3.0000   -1.5000    0.0000 F   0  0  0  0  0  0  0  0  0  0  0  0
    3.0000    1.5000    0.0000 F   0  0  0  0  0  0  0  0  0  0  0  0
    4.5000    0.0000    0.0000 C   0  0  0  0  0  0  0  0  0  0  0  0
    4.5000   -1.5000    0.0000 F   0  0  0  0  0  0  0  0  0  0  0  0
    4.5000    1.5000    0.0000 F   0  0  0  0  0  0  0  0  0  0  0  0
    6.0000    0.0000    0.0000 C   0  0  0  0  0  0  0  0  0  0  0  0
    6.0000    1.5000    0.0000 F   0  0  0  0  0  0  0  0  0  0  0  0
    6.0000   -1.5000    0.0000 F   0  0  0  0  0  0  0  0  0  0  0  0
    7.5000    0.0000    0.0000 C   0  0  0  0  0  0  0  0  0  0  0  0
    7.1370   -1.4554    0.0000 F   0  0  0  0  0  0  0  0  0  0  0  0
    7.5000    1.5000    0.0000 F   0  0  0  0  0  0  0  0  0  0  0  0
    9.0000    0.0000    0.0000 C   0  0  0  0  0  0  0  0  0  0  0  0
   10.4888    0.1828    0.0000 F   0  0  0  0  0  0  0  0  0  0  0  0
    9.0000    1.5000    0.0000 F   0  0  0  0  0  0  0  0  0  0  0  0
    9.0000   -1.5000    0.0000 S   0  0  0  0  0  0  0  0  0  0  0  0
   10.3808   -0.9139    0.0000 F   0  0  0  0  0  0  0  0  0  0  0  0
   10.2990   -2.2500    0.0000 F   0  0  0  0  0  0  0  0  0  0  0  0
    7.8021   -2.4028    0.0000 F   0  0  0  0  0  0  0  0  0  0  0  0
    9.0000   -3.0000    0.0000 F   0  0  0  0  0  0  0  0  0  0  0  0
    7.5184   -1.2655    0.0000 F   0  0  0  0  0  0  0  0  0  0  0  0
  1  2  2  0
  2  3  2  0
  2  4  1  0
  2  5  1  0
  5  6  1  0
  5  7  1  0
  5  8  1  0
  8  9  1  0
  8 10  1  0
  8 11  1  0
 11 12  1  0
 11 13  1  0
 11 14  1  0
 14 15  1  0
 14 16  1  0
 14 17  1  0
 17 18  1  0
 17 19  1  0
 17 20  1  0
 20 21  1  0
 20 22  1  0
 20 23  1  0
 23 24  1  0
 23 25  1  0
 23 26  1  0
 26 27  1  0
 26 28  1  0
 26 29  1  0
 26 30  1  0
 26 31  1  0
M  END
$$$$

     RDKit          2D

 42 41  0  0  0  0  0  0  0  0999 V2000
   -8.4876   11.5066    0.0000 O   0  0  0  0  0  0  0  0  0  0  0  0
   -8.7990   12.2404    0.0000 S   0  0  0  0  0  0  0  0  0  0  0  0
   -9.5490   13.5394    0.0000 O   0  0  0  0  0  0  0  0  0  0  0  0
  -10.0981   11.4904    0.0000 O   0  0  0  0  0  0  0  0  0  0  0  0
   -7.5000   12.9904    0.0000 C   0  0  0  0  0  0  0  0  0  0  0  0
   -8.2500   14.2894    0.0000 F   0  0  0  0  0  0  0  0  0  0  0  0
   -6.2010   13.7404    0.0000 F   0  0  0  0  0  0  0  0  0  0  0  0
   -6.7500   11.6913    0.0000 C   0  0  0  0  0  0  0  0  0  0  0  0
   -7.4574   11.1583    0.0000 F   0  0  0  0  0  0  0  0  0  0  0  0
   -5.4510   12.4413    0.0000 F   0  0  0  0  0  0  0  0  0  0  0  0
   -6.0000   10.3923    0.0000 C   0  0  0  0  0  0  0  0  0  0  0  0
   -4.7010   11.1423    0.0000 F   0  0  0  0  0  0  0  0  0  0  0  0
   -7.2990    9.6423    0.0000 F   0  0  0  0  0  0  0  0  0  0  0  0
   -5.2500    9.0933    0.0000 C   0  0  0  0  0  0  0  0  0  0  0  0
   -6.5490    8.3433    0.0000 F   0  0  0  0  0  0  0  0  0  0  0  0
   -3.9510    9.8433    0.0000 F   0  0  0  0  0  0  0  0  0  0  0  0
   -4.5000    7.7942    0.0000 C   0  0  0  0  0  0  0  0  0  0  0  0
   -3.2010    8.5442    0.0000 F   0  0  0  0  0  0  0  0  0  0  0  0
   -5.7990    7.0442    0.0000 F   0  0  0  0  0  0  0  0  0  0  0  0
   -3.7500    6.4952    0.0000 C   0  0  0  0  0  0  0  0  0  0  0  0
   -5.0490    5.7452    0.0000 F   0  0  0  0  0  0  0  0  0  0  0  0
   -2.4510    7.2452    0.0000 F   0  0  0  0  0  0  0  0  0  0  0  0
   -3.0000    5.1962    0.0000 C   0  0  0  0  0  0  0  0  0  0  0  0
   -1.7010    5.9462    0.0000 F   0  0  0  0  0  0  0  0  0  0  0  0
   -4.2990    4.4462    0.0000 F   0  0  0  0  0  0  0  0  0  0  0  0
   -2.2500    3.8971    0.0000 C   0  0  0  0  0  0  0  0  0  0  0  0
   -3.5490    3.1471    0.0000 F   0  0  0  0  0  0  0  0  0  0  0  0
   -0.9510    4.6471    0.0000 F   0  0  0  0  0  0  0  0  0  0  0  0
   -1.5000    2.5981    0.0000 C   0  0  0  0  0  0  0  0  0  0  0  0
   -0.2010    3.3481    0.0000 F   0  0  0  0  0  0  0  0  0  0  0  0
   -2.7990    1.8481    0.0000 F   0  0  0  0  0  0  0  0  0  0  0  0
   -0.7500    1.2990    0.0000 C   0  0  0  0  0  0  0  0  0  0  0  0
   -2.0490    0.5490    0.0000 F   0  0  0  0  0  0  0  0  0  0  0  0
    0.5490    2.0490    0.0000 F   0  0  0  0  0  0  0  0  0  0  0  0
    0.0000    0.0000    0.0000 C   0  0  0  0  0  0  0  0  0  0  0  0
   -0.7500   -1.2990    0.0000 F   0  0  0  0  0  0  0  0  0  0  0  0
    1.5000    0.0000    0.0000 C   0  0  0  0  0  0  0  0  0  0  0  0
    2.2500    1.2990    0.0000 F   0  0  0  0  0  0  0  0  0  0  0  0
    2.2500   -1.2990    0.0000 C   0  0  0  0  0  0  0  0  0  0  0  0
    3.0000   -2.5981    0.0000 F   0  0  0  0  0  0  0  0  0  0  0  0
    3.5490   -0.5490    0.0000 F   0  0  0  0  0  0  0  0  0  0  0  0
    0.9510   -2.0490    0.0000 F   0  0  0  0  0  0  0  0  0  0  0  0
  1  2  2  0
  2  3  2  0
  2  4  1  0
  2  5  1  0
  5  6  1  0
  5  7  1  0
  5  8  1  0
  8  9  1  0
  8 10  1  0
  8 11  1  0
 11 12  1  0
 11 13  1  0
 11 14  1  0
 14 15  1  0
 14 16  1  0
 14 17  1  0
 17 18  1  0
 17 19  1  0
 17 20  1  0
 20 21  1  0
 20 22  1  0
 20 23  1  0
 23 24  1  0
 23 25  1  0
 23 26  1  0
 26 27  1  0
 26 28  1  0
 26 29  1  0
 29 30  1  0
 29 31  1  0
 29 32  1  0
 32 33  1  0
 32 34  1  0
 32 35  1  0
 35 36  1  0
 35 37  2  0
 37 38  1  0
 37 39  1  0
 39 40  1  0
 39 41  1  0
 39 42  1  0
M  END
$$$$

     RDKit          2D

 27 26  0  0  0  0  0  0  0  0999 V2000
   -5.7990    7.0442    0.0000 O   0  0  0  0  0  0  0  0  0  0  0  0
   -5.0490    5.7452    0.0000 S   0  0  0  0  0  0  0  0  0  0  0  0
   -4.7376    5.0114    0.0000 O   0  0  0  0  0  0  0  0  0  0  0  0
   -6.3481    4.9952    0.0000 O   0  0  0  0  0  0  0  0  0  0  0  0
   -3.7500    6.4952    0.0000 C   0  0  0  0  0  0  0  0  0  0  0  0
   -4.5000    7.7942    0.0000 F   0  0  0  0  0  0  0  0  0  0  0  0
   -2.4510    7.2452    0.0000 F   0  0  0  0  0  0  0  0  0  0  0  0
   -3.0000    5.1962    0.0000 C   0  0  0  0  0  0  0  0  0  0  0  0
   -1.7010    5.9462    0.0000 F   0  0  0  0  0  0  0  0  0  0  0  0
   -3.7074    4.6631    0.0000 F   0  0  0  0  0  0  0  0  0  0  0  0
   -2.2500    3.8971    0.0000 C   0  0  0  0  0  0  0  0  0  0  0  0
   -3.5490    3.1471    0.0000 F   0  0  0  0  0  0  0  0  0  0  0  0
   -0.9510    4.6471    0.0000 F   0  0  0  0  0  0  0  0  0  0  0  0
   -1.5000    2.5981    0.0000 C   0  0  0  0  0  0  0  0  0  0  0  0
   -0.2010    3.3481    0.0000 F   0  0  0  0  0  0  0  0  0  0  0  0
   -2.7990    1.8481    0.0000 F   0  0  0  0  0  0  0  0  0  0  0  0
   -0.7500    1.2990    0.0000 C   0  0  0  0  0  0  0  0  0  0  0  0
   -2.0490    0.5490    0.0000 F   0  0  0  0  0  0  0  0  0  0  0  0
    0.5490    2.0490    0.0000 F   0  0  0  0  0  0  0  0  0  0  0  0
    0.0000    0.0000    0.0000 C   0  0  0  0  0  0  0  0  0  0  0  0
   -0.7500   -1.2990    0.0000 F   0  0  0  0  0  0  0  0  0  0  0  0
    1.5000    0.0000    0.0000 C   0  0  0  0  0  0  0  0  0  0  0  0
    2.2500    1.2990    0.0000 F   0  0  0  0  0  0  0  0  0  0  0  0
    2.2500   -1.2990    0.0000 C   0  0  0  0  0  0  0  0  0  0  0  0
    3.0000   -2.5981    0.0000 F   0  0  0  0  0  0  0  0  0  0  0  0
    3.5490   -0.5490    0.0000 F   0  0  0  0  0  0  0  0  0  0  0  0
    0.9510   -2.0490    0.0000 F   0  0  0  0  0  0  0  0  0  0  0  0
  1  2  2  0
  2  3  2  0
  2  4  1  0
  2  5  1  0
  5  6  1  0
  5  7  1  0
  5  8  1  0
  8  9  1  0
  8 10  1  0
  8 11  1  0
 11 12  1  0
 11 13  1  0
 11 14  1  0
 14 15  1  0
 14 16  1  0
 14 17  1  0
 17 18  1  0
 17 19  1  0
 17 20  1  0
 20 21  1  0
 20 22  2  0
 22 23  1  0
 22 24  1  0
 24 25  1  0
 24 26  1  0
 24 27  1  0
M  END
$$$$

     RDKit          2D

 28 27  0  0  0  0  0  0  0  0999 V2000
    9.8433    3.9510    0.0000 O   0  0  0  0  0  0  0  0  0  0  0  0
    8.5442    3.2010    0.0000 S   0  0  0  0  0  0  0  0  0  0  0  0
    7.9076    2.7212    0.0000 O   0  0  0  0  0  0  0  0  0  0  0  0
    9.2942    1.9019    0.0000 O   0  0  0  0  0  0  0  0  0  0  0  0
    7.7942    4.5000    0.0000 C   0  0  0  0  0  0  0  0  0  0  0  0
    9.0933    5.2500    0.0000 F   0  0  0  0  0  0  0  0  0  0  0  0
    7.0442    5.7990    0.0000 F   0  0  0  0  0  0  0  0  0  0  0  0
    6.4952    3.7500    0.0000 C   0  0  0  0  0  0  0  0  0  0  0  0
    6.8413    2.9347    0.0000 F   0  0  0  0  0  0  0  0  0  0  0  0
    5.7452    5.0490    0.0000 F   0  0  0  0  0  0  0  0  0  0  0  0
    5.1962    3.0000    0.0000 C   0  0  0  0  0  0  0  0  0  0  0  0
    4.4462    4.2990    0.0000 F   0  0  0  0  0  0  0  0  0  0  0  0
    5.9462    1.7010    0.0000 F   0  0  0  0  0  0  0  0  0  0  0  0
    3.8971    2.2500    0.0000 C   0  0  0  0  0  0  0  0  0  0  0  0
    4.6471    0.9510    0.0000 F   0  0  0  0  0  0  0  0  0  0  0  0
    3.1471    3.5490    0.0000 F   0  0  0  0  0  0  0  0  0  0  0  0
    2.5981    1.5000    0.0000 C   0  0  0  0  0  0  0  0  0  0  0  0
    1.8481    2.7990    0.0000 F   0  0  0  0  0  0  0  0  0  0  0  0
    3.3481    0.2010    0.0000 F   0  0  0  0  0  0  0  0  0  0  0  0
    1.2990    0.7500    0.0000 C   0  0  0  0  0  0  0  0  0  0  0  0
    2.0490   -0.5490    0.0000 F   0  0  0  0  0  0  0  0  0  0  0  0
    0.5490    2.0490    0.0000 F   0  0  0  0  0  0  0  0  0  0  0  0
    0.0000    0.0000    0.0000 C   0  0  0  0  0  0  0  0  0  0  0  0
   -0.0000   -1.5000    0.0000 F   0  0  0  0  0  0  0  0  0  0  0  0
   -1.2990    0.7500    0.0000 C   0  0  0  0  0  0  0  0  0  0  0  0
   -2.5981    1.5000    0.0000 F   0  0  0  0  0  0  0  0  0  0  0  0
   -2.0490   -0.5490    0.0000 F   0  0  0  0  0  0  0  0  0  0  0  0
   -0.5490    2.0490    0.0000 F   0  0  0  0  0  0  0  0  0  0  0  0
  1  2  2  0
  2  3  2  0
  2  4  1  0
  2  5  1  0
  5  6  1  0
  5  7  1  0
  5  8  1  0
  8  9  1  0
  8 10  1  0
  8 11  1  0
 11 12  1  0
 11 13  1  0
 11 14  1  0
 14 15  1  0
 14 16  1  0
 14 17  1  0
 17 18  1  0
 17 19  1  0
 17 20  1  0
 20 21  1  0
 20 22  1  0
 20 23  1  0
 23 24  1  0
 23 25  1  0
 25 26  1  0
 25 27  1  0
 25 28  1  0
M  END
$$$$

     RDKit          2D

 30 29  0  0  0  0  0  0  0  0999 V2000
    0.0000    0.0000    0.0000 C   0  0  0  0  0  0  0  0  0  0  0  0
    1.2990    0.7500    0.0000 N   0  0  0  0  0  0  0  0  0  0  0  0
    2.5981    1.5000    0.0000 C   0  0  0  0  0  0  0  0  0  0  0  0
    2.0490   -0.5490    0.0000 C   0  0  0  0  0  0  0  0  0  0  0  0
    3.5490   -0.5490    0.0000 C   0  0  0  0  0  0  0  0  0  0  0  0
    4.2990   -1.8481    0.0000 C   0  0  0  0  0  0  0  0  0  0  0  0
    5.7990   -1.8481    0.0000 N   0  0  0  0  0  0  0  0  0  0  0  0
    6.5490   -3.1471    0.0000 S   0  0  0  0  0  0  0  0  0  0  0  0
    5.2500   -3.8971    0.0000 O   0  0  0  0  0  0  0  0  0  0  0  0
    7.1857   -2.6674    0.0000 O   0  0  0  0  0  0  0  0  0  0  0  0
    7.2990   -4.4462    0.0000 C   0  0  0  0  0  0  0  0  0  0  0  0
    6.0000   -5.1962    0.0000 F   0  0  0  0  0  0  0  0  0  0  0  0
    8.0490   -5.7452    0.0000 F   0  0  0  0  0  0  0  0  0  0  0  0
    8.5981   -3.6962    0.0000 C   0  0  0  0  0  0  0  0  0  0  0  0
    8.2520   -2.8808    0.0000 F   0  0  0  0  0  0  0  0  0  0  0  0
    9.3481   -4.9952    0.0000 F   0  0  0  0  0  0  0  0  0  0  0  0
    9.8971   -2.9462    0.0000 C   0  0  0  0  0  0  0  0  0  0  0  0
    9.1471   -1.6471    0.0000 F   0  0  0  0  0  0  0  0  0  0  0  0
   10.6471   -4.2452    0.0000 F   0  0  0  0  0  0  0  0  0  0  0  0
   11.1962   -2.1962    0.0000 C   0  0  0  0  0  0  0  0  0  0  0  0
   12.4952   -1.4462    0.0000 F   0  0  0  0  0  0  0  0  0  0  0  0
   11.9462   -3.4952    0.0000 F   0  0  0  0  0  0  0  0  0  0  0  0
   10.4462   -0.8971    0.0000 F   0  0  0  0  0  0  0  0  0  0  0  0
    0.5490    2.0490    0.0000 C   0  0  0  0  0  0  0  0  0  0  0  0
    1.2990    3.3481    0.0000 C   0  0  0  0  0  0  0  0  0  0  0  0
    0.5490    4.6471    0.0000 C   0  0  0  0  0  0  0  0  0  0  0  0
    1.2990    5.9462    0.0000 S   0  0  0  0  0  0  0  0  0  0  0  0
    0.0000    6.6962    0.0000 O   0  0  0  0  0  0  0  0  0  0  0  0
    2.5981    5.1962    0.0000 O   0  0  0  0  0  0  0  0  0  0  0  0
    2.0490    7.2452    0.0000 O   0  0  0  0  0  0  0  0  0  0  0  0
  1  2  1  0
  2  3  1  0
  2  4  1  0
  4  5  1  0
  5  6  1  0
  6  7  1  0
  7  8  1  0
  8  9  2  0
  8 10  2  0
  8 11  1  0
 11 12  1  0
 11 13  1  0
 11 14  1  0
 14 15  1  0
 14 16  1  0
 14 17  1  0
 17 18  1  0
 17 19  1  0
 17 20  1  0
 20 21  1  0
 20 22  1  0
 20 23  1  0
  2 24  1  0
 24 25  1  0
 25 26  1  0
 26 27  1  0
 27 28  2  0
 27 29  2  0
 27 30  1  0
M  CHG  1   2   1
M  END
$$$$

     RDKit          2D

 19 18  0  0  0  0  0  0  0  0999 V2000
   -0.0000   -1.5000    0.0000 O   0  0  0  0  0  0  0  0  0  0  0  0
    0.0000    0.0000    0.0000 C   0  0  0  0  0  0  0  0  0  0  0  0
   -1.2990    0.7500    0.0000 C   0  0  0  0  0  0  0  0  0  0  0  0
   -2.5981    1.5000    0.0000 F   0  0  0  0  0  0  0  0  0  0  0  0
   -2.0490   -0.5490    0.0000 F   0  0  0  0  0  0  0  0  0  0  0  0
   -0.5490    2.0490    0.0000 F   0  0  0  0  0  0  0  0  0  0  0  0
    1.2990    0.7500    0.0000 C   0  0  0  0  0  0  0  0  0  0  0  0
    2.0490   -0.5490    0.0000 F   0  0  0  0  0  0  0  0  0  0  0  0
    0.5490    2.0490    0.0000 F   0  0  0  0  0  0  0  0  0  0  0  0
    2.5981    1.5000    0.0000 C   0  0  0  0  0  0  0  0  0  0  0  0
    1.8481    2.7990    0.0000 F   0  0  0  0  0  0  0  0  0  0  0  0
    2.9441    0.6847    0.0000 F   0  0  0  0  0  0  0  0  0  0  0  0
    3.8971    2.2500    0.0000 C   0  0  0  0  0  0  0  0  0  0  0  0
    5.1962    3.0000    0.0000 F   0  0  0  0  0  0  0  0  0  0  0  0
    3.1471    3.5490    0.0000 F   0  0  0  0  0  0  0  0  0  0  0  0
    4.6471    0.9510    0.0000 S   0  0  0  0  0  0  0  0  0  0  0  0
    4.0105    0.4712    0.0000 O   0  0  0  0  0  0  0  0  0  0  0  0
    5.9462    1.7010    0.0000 O   0  0  0  0  0  0  0  0  0  0  0  0
    5.3971   -0.3481    0.0000 O   0  0  0  0  0  0  0  0  0  0  0  0
  1  2  2  0
  2  3  1  0
  3  4  1  0
  3  5  1  0
  3  6  1  0
  2  7  1  0
  7  8  1  0
  7  9  1  0
  7 10  1  0
 10 11  1  0
 10 12  1  0
 10 13  1  0
 13 14  1  0
 13 15  1  0
 13 16  1  0
 16 17  2  0
 16 18  2  0
 16 19  1  0
M  END
$$$$

     RDKit          2D

 45 44  0  0  0  0  0  0  0  0999 V2000
   -2.0490   -2.4510    0.0000 O   0  0  0  0  0  0  0  0  0  0  0  0
   -1.2990   -3.7500    0.0000 S   0  0  0  0  0  0  0  0  0  0  0  0
   -2.6798   -4.3361    0.0000 O   0  0  0  0  0  0  0  0  0  0  0  0
   -0.0000   -3.0000    0.0000 O   0  0  0  0  0  0  0  0  0  0  0  0
   -0.0000   -1.5000    0.0000 S   0  0  0  0  0  0  0  0  0  0  0  0
   -1.5000   -1.5000    0.0000 O   0  0  0  0  0  0  0  0  0  0  0  0
    0.7912   -1.5972    0.0000 O   0  0  0  0  0  0  0  0  0  0  0  0
   -0.0000    0.0000    0.0000 C   0  0  0  0  0  0  0  0  0  0  0  0
   -1.5000    0.0000    0.0000 F   0  0  0  0  0  0  0  0  0  0  0  0
    0.0000    1.5000    0.0000 F   0  0  0  0  0  0  0  0  0  0  0  0
    1.5000    0.0000    0.0000 C   0  0  0  0  0  0  0  0  0  0  0  0
    1.5000    1.5000    0.0000 F   0  0  0  0  0  0  0  0  0  0  0  0
    1.6080   -0.8791    0.0000 F   0  0  0  0  0  0  0  0  0  0  0  0
    3.0000   -0.0000    0.0000 C   0  0  0  0  0  0  0  0  0  0  0  0
    3.0000   -1.5000    0.0000 F   0  0  0  0  0  0  0  0  0  0  0  0
    3.0000    1.5000    0.0000 F   0  0  0  0  0  0  0  0  0  0  0  0
    4.5000   -0.0000    0.0000 C   0  0  0  0  0  0  0  0  0  0  0  0
    4.5000   -1.5000    0.0000 F   0  0  0  0  0  0  0  0  0  0  0  0
    4.5000    1.5000    0.0000 F   0  0  0  0  0  0  0  0  0  0  0  0
    6.0000   -0.0000    0.0000 C   0  0  0  0  0  0  0  0  0  0  0  0
    6.0000    1.5000    0.0000 F   0  0  0  0  0  0  0  0  0  0  0  0
    6.0000   -1.5000    0.0000 F   0  0  0  0  0  0  0  0  0  0  0  0
    7.5000   -0.0000    0.0000 C   0  0  0  0  0  0  0  0  0  0  0  0
    9.0000   -0.0000    0.0000 F   0  0  0  0  0  0  0  0  0  0  0  0
    7.5000   -1.5000    0.0000 F   0  0  0  0  0  0  0  0  0  0  0  0
    7.5000    1.5000    0.0000 F   0  0  0  0  0  0  0  0  0  0  0  0
   -0.5490   -5.0490    0.0000 C   0  0  0  0  0  0  0  0  0  0  0  0
    0.7500   -4.2990    0.0000 F   0  0  0  0  0  0  0  0  0  0  0  0
    0.2010   -6.3481    0.0000 F   0  0  0  0  0  0  0  0  0  0  0  0
   -1.8481   -5.7990    0.0000 C   0  0  0  0  0  0  0  0  0  0  0  0
   -2.7508   -4.6011    0.0000 F   0  0  0  0  0  0  0  0  0  0  0  0
   -1.0981   -7.0981    0.0000 F   0  0  0  0  0  0  0  0  0  0  0  0
   -3.1471   -6.5490    0.0000 C   0  0  0  0  0  0  0  0  0  0  0  0
   -2.3971   -7.8481    0.0000 F   0  0  0  0  0  0  0  0  0  0  0  0
   -3.8971   -5.2500    0.0000 F   0  0  0  0  0  0  0  0  0  0  0  0
   -4.4462   -7.2990    0.0000 C   0  0  0  0  0  0  0  0  0  0  0  0
   -3.6962   -8.5981    0.0000 F   0  0  0  0  0  0  0  0  0  0  0  0
   -5.1962   -6.0000    0.0000 F   0  0  0  0  0  0  0  0  0  0  0  0
   -5.7452   -8.0490    0.0000 C   0  0  0  0  0  0  0  0  0  0  0  0
   -6.4952   -6.7500    0.0000 F   0  0  0  0  0  0  0  0  0  0  0  0
   -4.9952   -9.3481    0.0000 F   0  0  0  0  0  0  0  0  0  0  0  0
   -7.0442   -8.7990    0.0000 C   0  0  0  0  0  0  0  0  0  0  0  0
   -8.3433   -9.5490    0.0000 F   0  0  0  0  0  0  0  0  0  0  0  0
   -6.2942  -10.0981    0.0000 F   0  0  0  0  0  0  0  0  0  0  0  0
   -7.7942   -7.5000    0.0000 F   0  0  0  0  0  0  0  0  0  0  0  0
  1  2  2  0
  2  3  2  0
  2  4  1  0
  4  5  1  0
  5  6  2  0
  5  7  2  0
  5  8  1  0
  8  9  1  0
  8 10  1  0
  8 11  1  0
 11 12  1  0
 11 13  1  0
 11 14  1  0
 14 15  1  0
 14 16  1  0
 14 17  1  0
 17 18  1  0
 17 19  1  0
 17 20  1  0
 20 21  1  0
 20 22  1  0
 20 23  1  0
 23 24  1  0
 23 25  1  0
 23 26  1  0
  2 27  1  0
 27 28  1  0
 27 29  1  0
 27 30  1  0
 30 31  1  0
 30 32  1  0
 30 33  1  0
 33 34  1  0
 33 35  1  0
 33 36  1  0
 36 37  1  0
 36 38  1  0
 36 39  1  0
 39 40  1  0
 39 41  1  0
 39 42  1  0
 42 43  1  0
 42 44  1  0
 42 45  1  0
M  END
$$$$

     RDKit          2D

 38 37  0  0  0  0  0  0  0  0999 V2000
    3.0000   -1.5000    0.0000 C   0  0  0  0  0  0  0  0  0  0  0  0
    3.0000    0.0000    0.0000 N   0  0  0  0  0  0  0  0  0  0  0  0
    3.0000    1.5000    0.0000 C   0  0  0  0  0  0  0  0  0  0  0  0
    4.5000    0.0000    0.0000 C   0  0  0  0  0  0  0  0  0  0  0  0
    1.5000    0.0000    0.0000 C   0  0  0  0  0  0  0  0  0  0  0  0
    0.7500   -1.2990    0.0000 C   0  0  0  0  0  0  0  0  0  0  0  0
   -0.7500   -1.2990    0.0000 C   0  0  0  0  0  0  0  0  0  0  0  0
   -1.5000    0.0000    0.0000 C   0  0  0  0  0  0  0  0  0  0  0  0
   -3.0000    0.0000    0.0000 C   0  0  0  0  0  0  0  0  0  0  0  0
   -3.7500    1.2990    0.0000 C   0  0  0  0  0  0  0  0  0  0  0  0
   -5.2500    1.2990    0.0000 C   0  0  0  0  0  0  0  0  0  0  0  0
   -6.0000    2.5981    0.0000 C   0  0  0  0  0  0  0  0  0  0  0  0
   -4.8021    3.5008    0.0000 F   0  0  0  0  0  0  0  0  0  0  0  0
   -6.7500    3.8971    0.0000 C   0  0  0  0  0  0  0  0  0  0  0  0
   -7.5000    5.1962    0.0000 F   0  0  0  0  0  0  0  0  0  0  0  0
   -5.4510    4.6471    0.0000 F   0  0  0  0  0  0  0  0  0  0  0  0
   -7.5653    3.5511    0.0000 F   0  0  0  0  0  0  0  0  0  0  0  0
   -7.2990    1.8481    0.0000 C   0  0  0  0  0  0  0  0  0  0  0  0
   -8.6798    1.2620    0.0000 F   0  0  0  0  0  0  0  0  0  0  0  0
   -7.8321    2.5554    0.0000 F   0  0  0  0  0  0  0  0  0  0  0  0
   -7.2713    1.0514    0.0000 F   0  0  0  0  0  0  0  0  0  0  0  0
   -6.0000   -0.0000    0.0000 C   0  0  0  0  0  0  0  0  0  0  0  0
   -4.7010   -0.7500    0.0000 F   0  0  0  0  0  0  0  0  0  0  0  0
   -6.7500   -1.2990    0.0000 C   0  0  0  0  0  0  0  0  0  0  0  0
   -7.5000   -2.5981    0.0000 F   0  0  0  0  0  0  0  0  0  0  0  0
   -5.4510   -2.0490    0.0000 F   0  0  0  0  0  0  0  0  0  0  0  0
   -8.1308   -0.7130    0.0000 F   0  0  0  0  0  0  0  0  0  0  0  0
   -7.2990    0.7500    0.0000 C   0  0  0  0  0  0  0  0  0  0  0  0
   -8.6798    1.3361    0.0000 F   0  0  0  0  0  0  0  0  0  0  0  0
   -8.2018   -0.4479    0.0000 F   0  0  0  0  0  0  0  0  0  0  0  0
   -7.2469    2.2491    0.0000 F   0  0  0  0  0  0  0  0  0  0  0  0
   -3.0000    2.5981    0.0000 C   0  0  0  0  0  0  0  0  0  0  0  0
   -2.2500    3.8971    0.0000 F   0  0  0  0  0  0  0  0  0  0  0  0
   -4.1979    3.5008    0.0000 F   0  0  0  0  0  0  0  0  0  0  0  0
   -1.7010    1.8481    0.0000 F   0  0  0  0  0  0  0  0  0  0  0  0
   -0.7500    1.2990    0.0000 C   0  0  0  0  0  0  0  0  0  0  0  0
    0.7500    1.2990    0.0000 C   0  0  0  0  0  0  0  0  0  0  0  0
    0.0000    6.1962    0.0000 I   0  0  0  0  0  0  0  0  0  0  0  0
  1  2  1  0
  2  3  1  0
  2  4  1  0
  2  5  1  0
  5  6  2  0
  6  7  1  0
  7  8  2  0
  8  9  1  0
  9 10  1  0
 10 11  2  0
 11 12  1  0
 12 13  1  0
 12 14  1  0
 14 15  1  0
 14 16  1  0
 14 17  1  0
 12 18  1  0
 18 19  1  0
 18 20  1  0
 18 21  1  0
 11 22  1  0
 22 23  1  0
 22 24  1  0
 24 25  1  0
 24 26  1  0
 24 27  1  0
 22 28  1  0
 28 29  1  0
 28 30  1  0
 28 31  1  0
 10 32  1  0
 32 33  1  0
 32 34  1  0
 32 35  1  0
  8 36  1  0
 36 37  2  0
 37  5  1  0
M  CHG  2   2   1  38  -1
M  END
$$$$

     RDKit          2D

 28 27  0  0  0  0  0  0  0  0999 V2000
    0.0000    0.0000    0.0000 C   0  0  0  0  0  0  0  0  0  0  0  0
    1.2990    0.7500    0.0000 N   0  0  0  0  0  0  0  0  0  0  0  0
    2.5981    1.5000    0.0000 C   0  0  0  0  0  0  0  0  0  0  0  0
    2.0490   -0.5490    0.0000 C   0  0  0  0  0  0  0  0  0  0  0  0
    3.5490   -0.5490    0.0000 C   0  0  0  0  0  0  0  0  0  0  0  0
    4.2990   -1.8481    0.0000 C   0  0  0  0  0  0  0  0  0  0  0  0
    5.7990   -1.8481    0.0000 N   0  0  0  0  0  0  0  0  0  0  0  0
    6.5490   -3.1471    0.0000 S   0  0  0  0  0  0  0  0  0  0  0  0
    5.2500   -3.8971    0.0000 O   0  0  0  0  0  0  0  0  0  0  0  0
    7.1857   -2.6674    0.0000 O   0  0  0  0  0  0  0  0  0  0  0  0
    7.2990   -4.4462    0.0000 C   0  0  0  0  0  0  0  0  0  0  0  0
    6.0000   -5.1962    0.0000 F   0  0  0  0  0  0  0  0  0  0  0  0
    8.0490   -5.7452    0.0000 F   0  0  0  0  0  0  0  0  0  0  0  0
    8.5981   -3.6962    0.0000 C   0  0  0  0  0  0  0  0  0  0  0  0
    9.3481   -4.9952    0.0000 F   0  0  0  0  0  0  0  0  0  0  0  0
    8.2520   -2.8808    0.0000 F   0  0  0  0  0  0  0  0  0  0  0  0
    9.8971   -2.9462    0.0000 C   0  0  0  0  0  0  0  0  0  0  0  0
   11.1962   -2.1962    0.0000 F   0  0  0  0  0  0  0  0  0  0  0  0
   10.6471   -4.2452    0.0000 F   0  0  0  0  0  0  0  0  0  0  0  0
    9.1471   -1.6471    0.0000 F   0  0  0  0  0  0  0  0  0  0  0  0
    0.5490    2.0490    0.0000 C   0  0  0  0  0  0  0  0  0  0  0  0
    1.2990    3.3481    0.0000 C   0  0  0  0  0  0  0  0  0  0  0  0
    2.7990    3.3481    0.0000 O   0  0  0  0  0  0  0  0  0  0  0  0
    0.5490    4.6471    0.0000 C   0  0  0  0  0  0  0  0  0  0  0  0
    1.2990    5.9462    0.0000 S   0  0  0  0  0  0  0  0  0  0  0  0
    0.0000    6.6962    0.0000 O   0  0  0  0  0  0  0  0  0  0  0  0
    2.5981    5.1962    0.0000 O   0  0  0  0  0  0  0  0  0  0  0  0
    2.0490    7.2452    0.0000 O   0  0  0  0  0  0  0  0  0  0  0  0
  1  2  1  0
  2  3  1  0
  2  4  1  0
  4  5  1  0
  5  6  1  0
  6  7  1  0
  7  8  1  0
  8  9  2  0
  8 10  2  0
  8 11  1  0
 11 12  1  0
 11 13  1  0
 11 14  1  0
 14 15  1  0
 14 16  1  0
 14 17  1  0
 17 18  1  0
 17 19  1  0
 17 20  1  0
  2 21  1  0
 21 22  1  0
 22 23  1  0
 22 24  1  0
 24 25  1  0
 25 26  2  0
 25 27  2  0
 25 28  1  0
M  CHG  1   2   1
M  END
$$$$

     RDKit          2D

 49 48  0  0  0  0  0  0  0  0999 V2000
   10.2990   -5.9462    0.0000 C   0  0  0  0  0  0  0  0  0  0  0  0
   10.2990   -4.4462    0.0000 N   0  0  0  0  0  0  0  0  0  0  0  0
   10.2990   -2.9462    0.0000 C   0  0  0  0  0  0  0  0  0  0  0  0
    8.7990   -4.4462    0.0000 C   0  0  0  0  0  0  0  0  0  0  0  0
    8.0490   -3.1471    0.0000 C   0  0  0  0  0  0  0  0  0  0  0  0
    6.5490   -3.1471    0.0000 C   0  0  0  0  0  0  0  0  0  0  0  0
    5.7990   -1.8481    0.0000 N   0  0  0  0  0  0  0  0  0  0  0  0
    4.2990   -1.8481    0.0000 C   0  0  0  0  0  0  0  0  0  0  0  0
    3.5490   -0.5490    0.0000 C   0  0  0  0  0  0  0  0  0  0  0  0
    2.0490   -0.5490    0.0000 C   0  0  0  0  0  0  0  0  0  0  0  0
    1.2990    0.7500    0.0000 S   0  0  0  0  0  0  0  0  0  0  0  0
    0.0000    0.0000    0.0000 O   0  0  0  0  0  0  0  0  0  0  0  0
    2.6798    1.3361    0.0000 O   0  0  0  0  0  0  0  0  0  0  0  0
    0.3963    1.9479    0.0000 O   0  0  0  0  0  0  0  0  0  0  0  0
    6.5490   -0.5490    0.0000 S   0  0  0  0  0  0  0  0  0  0  0  0
    7.8481   -1.2990    0.0000 O   0  0  0  0  0  0  0  0  0  0  0  0
    5.8152   -0.2376    0.0000 O   0  0  0  0  0  0  0  0  0  0  0  0
    7.2990    0.7500    0.0000 C   0  0  0  0  0  0  0  0  0  0  0  0
    8.5981    0.0000    0.0000 F   0  0  0  0  0  0  0  0  0  0  0  0
    8.0490    2.0490    0.0000 F   0  0  0  0  0  0  0  0  0  0  0  0
    6.0000    1.5000    0.0000 C   0  0  0  0  0  0  0  0  0  0  0  0
    6.7500    2.7990    0.0000 F   0  0  0  0  0  0  0  0  0  0  0  0
    5.4669    0.7926    0.0000 F   0  0  0  0  0  0  0  0  0  0  0  0
    4.7010    2.2500    0.0000 C   0  0  0  0  0  0  0  0  0  0  0  0
    5.4510    3.5490    0.0000 F   0  0  0  0  0  0  0  0  0  0  0  0
    3.9510    0.9510    0.0000 F   0  0  0  0  0  0  0  0  0  0  0  0
    3.4019    3.0000    0.0000 C   0  0  0  0  0  0  0  0  0  0  0  0
    4.1519    4.2990    0.0000 F   0  0  0  0  0  0  0  0  0  0  0  0
    2.8159    1.6192    0.0000 F   0  0  0  0  0  0  0  0  0  0  0  0
    2.1029    3.7500    0.0000 C   0  0  0  0  0  0  0  0  0  0  0  0
    2.8529    5.0490    0.0000 F   0  0  0  0  0  0  0  0  0  0  0  0
    1.2001    2.5521    0.0000 F   0  0  0  0  0  0  0  0  0  0  0  0
    0.8038    4.5000    0.0000 C   0  0  0  0  0  0  0  0  0  0  0  0
    1.5538    5.7990    0.0000 F   0  0  0  0  0  0  0  0  0  0  0  0
    0.0538    3.2010    0.0000 F   0  0  0  0  0  0  0  0  0  0  0  0
   -0.4952    5.2500    0.0000 C   0  0  0  0  0  0  0  0  0  0  0  0
    0.2548    6.5490    0.0000 F   0  0  0  0  0  0  0  0  0  0  0  0
   -1.2452    3.9510    0.0000 F   0  0  0  0  0  0  0  0  0  0  0  0
   -1.7942    6.0000    0.0000 C   0  0  0  0  0  0  0  0  0  0  0  0
   -3.0933    6.7500    0.0000 F   0  0  0  0  0  0  0  0  0  0  0  0
   -2.5442    4.7010    0.0000 F   0  0  0  0  0  0  0  0  0  0  0  0
   -1.0442    7.2990    0.0000 F   0  0  0  0  0  0  0  0  0  0  0  0
   11.7990   -4.4462    0.0000 C   0  0  0  0  0  0  0  0  0  0  0  0
   12.5490   -3.1471    0.0000 C   0  0  0  0  0  0  0  0  0  0  0  0
   14.0490   -3.1471    0.0000 C   0  0  0  0  0  0  0  0  0  0  0  0
   14.7990   -1.8481    0.0000 S   0  0  0  0  0  0  0  0  0  0  0  0
   16.0981   -2.5981    0.0000 O   0  0  0  0  0  0  0  0  0  0  0  0
   13.5000   -1.0981    0.0000 O   0  0  0  0  0  0  0  0  0  0  0  0
   15.5490   -0.5490    0.0000 O   0  0  0  0  0  0  0  0  0  0  0  0
  1  2  1  0
  2  3  1  0
  2  4  1  0
  4  5  1  0
  5  6  1  0
  6  7  1  0
  7  8  1  0
  8  9  1  0
  9 10  1  0
 10 11  1  0
 11 12  2  0
 11 13  2  0
 11 14  1  0
  7 15  1  0
 15 16  2  0
 15 17  2  0
 15 18  1  0
 18 19  1  0
 18 20  1  0
 18 21  1  0
 21 22  1  0
 21 23  1  0
 21 24  1  0
 24 25  1  0
 24 26  1  0
 24 27  1  0
 27 28  1  0
 27 29  1  0
 27 30  1  0
 30 31  1  0
 30 32  1  0
 30 33  1  0
 33 34  1  0
 33 35  1  0
 33 36  1  0
 36 37  1  0
 36 38  1  0
 36 39  1  0
 39 40  1  0
 39 41  1  0
 39 42  1  0
  2 43  1  0
 43 44  1  0
 44 45  1  0
 45 46  1  0
 46 47  2  0
 46 48  2  0
 46 49  1  0
M  CHG  2   2   1  49  -1
M  END
$$$$

     RDKit          2D

 38 37  0  0  0  0  0  0  0  0999 V2000
   14.5981    1.5000    0.0000 C   0  0  0  0  0  0  0  0  0  0  0  0
   13.2990    0.7500    0.0000 N   0  0  0  0  0  0  0  0  0  0  0  0
   12.0000    0.0000    0.0000 C   0  0  0  0  0  0  0  0  0  0  0  0
   14.0490   -0.5490    0.0000 C   0  0  0  0  0  0  0  0  0  0  0  0
   13.2990   -1.8481    0.0000 C   0  0  0  0  0  0  0  0  0  0  0  0
   14.0490   -3.1471    0.0000 O   0  0  0  0  0  0  0  0  0  0  0  0
   12.5490    2.0490    0.0000 C   0  0  0  0  0  0  0  0  0  0  0  0
   11.0490    2.0490    0.0000 C   0  0  0  0  0  0  0  0  0  0  0  0
   10.2990    3.3481    0.0000 C   0  0  0  0  0  0  0  0  0  0  0  0
    8.7990    3.3481    0.0000 N   0  0  0  0  0  0  0  0  0  0  0  0
    8.0490    4.6471    0.0000 C   0  0  0  0  0  0  0  0  0  0  0  0
    6.5490    4.6471    0.0000 C   0  0  0  0  0  0  0  0  0  0  0  0
    5.7990    5.9462    0.0000 O   0  0  0  0  0  0  0  0  0  0  0  0
    8.0490    2.0490    0.0000 S   0  0  0  0  0  0  0  0  0  0  0  0
    9.3481    1.2990    0.0000 O   0  0  0  0  0  0  0  0  0  0  0  0
    7.4124    2.5288    0.0000 O   0  0  0  0  0  0  0  0  0  0  0  0
    7.2990    0.7500    0.0000 C   0  0  0  0  0  0  0  0  0  0  0  0
    8.5981    0.0000    0.0000 F   0  0  0  0  0  0  0  0  0  0  0  0
    6.5490   -0.5490    0.0000 F   0  0  0  0  0  0  0  0  0  0  0  0
    6.0000    1.5000    0.0000 C   0  0  0  0  0  0  0  0  0  0  0  0
    6.3461    2.3153    0.0000 F   0  0  0  0  0  0  0  0  0  0  0  0
    5.2500    0.2010    0.0000 F   0  0  0  0  0  0  0  0  0  0  0  0
    4.7010    2.2500    0.0000 C   0  0  0  0  0  0  0  0  0  0  0  0
    5.4510    3.5490    0.0000 F   0  0  0  0  0  0  0  0  0  0  0  0
    3.9510    0.9510    0.0000 F   0  0  0  0  0  0  0  0  0  0  0  0
    3.4019    3.0000    0.0000 C   0  0  0  0  0  0  0  0  0  0  0  0
    4.1519    4.2990    0.0000 F   0  0  0  0  0  0  0  0  0  0  0  0
    2.6519    1.7010    0.0000 F   0  0  0  0  0  0  0  0  0  0  0  0
    2.1029    3.7500    0.0000 C   0  0  0  0  0  0  0  0  0  0  0  0
    1.3529    2.4510    0.0000 F   0  0  0  0  0  0  0  0  0  0  0  0
    2.8529    5.0490    0.0000 F   0  0  0  0  0  0  0  0  0  0  0  0
    0.8038    4.5000    0.0000 C   0  0  0  0  0  0  0  0  0  0  0  0
    0.0538    3.2010    0.0000 F   0  0  0  0  0  0  0  0  0  0  0  0
    1.5538    5.7990    0.0000 F   0  0  0  0  0  0  0  0  0  0  0  0
   -0.4952    5.2500    0.0000 C   0  0  0  0  0  0  0  0  0  0  0  0
   -1.7942    6.0000    0.0000 F   0  0  0  0  0  0  0  0  0  0  0  0
    0.2548    6.5490    0.0000 F   0  0  0  0  0  0  0  0  0  0  0  0
   -1.2452    3.9510    0.0000 F   0  0  0  0  0  0  0  0  0  0  0  0
  1  2  1  0
  2  3  1  0
  2  4  1  0
  4  5  1  0
  5  6  1  0
  2  7  1  0
  7  8  1  0
  8  9  1  0
  9 10  1  0
 10 11  1  0
 11 12  1  0
 12 13  1  0
 10 14  1  0
 14 15  2  0
 14 16  2  0
 14 17  1  0
 17 18  1  0
 17 19  1  0
 17 20  1  0
 20 21  1  0
 20 22  1  0
 20 23  1  0
 23 24  1  0
 23 25  1  0
 23 26  1  0
 26 27  1  0
 26 28  1  0
 26 29  1  0
 29 30  1  0
 29 31  1  0
 29 32  1  0
 32 33  1  0
 32 34  1  0
 32 35  1  0
 35 36  1  0
 35 37  1  0
 35 38  1  0
M  CHG  1   2   1
M  END
$$$$

     RDKit          2D

 30 29  0  0  0  0  0  0  0  0999 V2000
    0.0000    0.0000    0.0000 C   0  0  0  0  0  0  0  0  0  0  0  0
    1.2990    0.7500    0.0000 C   0  0  0  0  0  0  0  0  0  0  0  0
    2.5981   -0.0000    0.0000 C   0  0  0  0  0  0  0  0  0  0  0  0
    2.5981   -1.5000    0.0000 O   0  0  0  0  0  0  0  0  0  0  0  0
    3.8971    0.7500    0.0000 O   0  0  0  0  0  0  0  0  0  0  0  0
    5.1962   -0.0000    0.0000 C   0  0  0  0  0  0  0  0  0  0  0  0
    6.4952    0.7500    0.0000 C   0  0  0  0  0  0  0  0  0  0  0  0
    7.2452   -0.5490    0.0000 F   0  0  0  0  0  0  0  0  0  0  0  0
    5.7452    2.0490    0.0000 F   0  0  0  0  0  0  0  0  0  0  0  0
    7.7942    1.5000    0.0000 C   0  0  0  0  0  0  0  0  0  0  0  0
    7.0442    2.7990    0.0000 F   0  0  0  0  0  0  0  0  0  0  0  0
    8.5442    0.2010    0.0000 F   0  0  0  0  0  0  0  0  0  0  0  0
    9.0933    2.2500    0.0000 C   0  0  0  0  0  0  0  0  0  0  0  0
    8.3433    3.5490    0.0000 F   0  0  0  0  0  0  0  0  0  0  0  0
    9.8433    0.9510    0.0000 F   0  0  0  0  0  0  0  0  0  0  0  0
   10.3923    3.0000    0.0000 C   0  0  0  0  0  0  0  0  0  0  0  0
   11.1423    1.7010    0.0000 F   0  0  0  0  0  0  0  0  0  0  0  0
    9.6423    4.2990    0.0000 F   0  0  0  0  0  0  0  0  0  0  0  0
   11.6913    3.7500    0.0000 C   0  0  0  0  0  0  0  0  0  0  0  0
   12.9904    3.0000    0.0000 O   0  0  0  0  0  0  0  0  0  0  0  0
   14.2894    3.7500    0.0000 C   0  0  0  0  0  0  0  0  0  0  0  0
   14.2894    5.2500    0.0000 O   0  0  0  0  0  0  0  0  0  0  0  0
   15.5885    3.0000    0.0000 C   0  0  0  0  0  0  0  0  0  0  0  0
   16.8875    3.7500    0.0000 C   0  0  0  0  0  0  0  0  0  0  0  0
   18.1865    3.0000    0.0000 N   0  0  0  0  0  0  0  0  0  0  0  0
   19.4856    3.7500    0.0000 C   0  0  0  0  0  0  0  0  0  0  0  0
   20.7846    3.0000    0.0000 C   0  0  0  0  0  0  0  0  0  0  0  0
   22.0836    3.7500    0.0000 C   0  0  0  0  0  0  0  0  0  0  0  0
   23.3827    3.0000    0.0000 N   0  0  0  0  0  0  0  0  0  0  0  0
   24.6817    3.7500    0.0000 C   0  0  0  0  0  0  0  0  0  0  0  0
  1  2  2  0
  2  3  1  0
  3  4  2  0
  3  5  1  0
  5  6  1  0
  6  7  1  0
  7  8  1  0
  7  9  1  0
  7 10  1  0
 10 11  1  0
 10 12  1  0
 10 13  1  0
 13 14  1  0
 13 15  1  0
 13 16  1  0
 16 17  1  0
 16 18  1  0
 16 19  1  0
 19 20  1  0
 20 21  1  0
 21 22  2  0
 21 23  1  0
 23 24  1  0
 24 25  1  0
 25 26  1  0
 26 27  1  0
 27 28  1  0
 28 29  1  0
 29 30  1  0
M  END
$$$$

     RDKit          2D

 24 23  0  0  0  0  0  0  0  0999 V2000
    0.0000    0.0000    0.0000 C   0  0  0  0  0  0  0  0  0  0  0  0
    1.2990    0.7500    0.0000 N   0  0  0  0  0  0  0  0  0  0  0  0
    2.5981    1.5000    0.0000 C   0  0  0  0  0  0  0  0  0  0  0  0
    2.0490   -0.5490    0.0000 C   0  0  0  0  0  0  0  0  0  0  0  0
    3.5490   -0.5490    0.0000 C   0  0  0  0  0  0  0  0  0  0  0  0
    4.2990   -1.8481    0.0000 C   0  0  0  0  0  0  0  0  0  0  0  0
    5.7990   -1.8481    0.0000 N   0  0  0  0  0  0  0  0  0  0  0  0
    6.5490   -3.1471    0.0000 S   0  0  0  0  0  0  0  0  0  0  0  0
    5.2500   -3.8971    0.0000 O   0  0  0  0  0  0  0  0  0  0  0  0
    7.1857   -2.6674    0.0000 O   0  0  0  0  0  0  0  0  0  0  0  0
    7.2990   -4.4462    0.0000 C   0  0  0  0  0  0  0  0  0  0  0  0
    6.0000   -5.1962    0.0000 F   0  0  0  0  0  0  0  0  0  0  0  0
    8.0490   -5.7452    0.0000 F   0  0  0  0  0  0  0  0  0  0  0  0
    8.5981   -3.6962    0.0000 C   0  0  0  0  0  0  0  0  0  0  0  0
    8.2520   -2.8808    0.0000 F   0  0  0  0  0  0  0  0  0  0  0  0
    9.3481   -4.9952    0.0000 F   0  0  0  0  0  0  0  0  0  0  0  0
    9.8971   -2.9462    0.0000 C   0  0  0  0  0  0  0  0  0  0  0  0
   11.1962   -2.1962    0.0000 F   0  0  0  0  0  0  0  0  0  0  0  0
    9.1471   -1.6471    0.0000 F   0  0  0  0  0  0  0  0  0  0  0  0
   10.6471   -4.2452    0.0000 F   0  0  0  0  0  0  0  0  0  0  0  0
    0.5490    2.0490    0.0000 C   0  0  0  0  0  0  0  0  0  0  0  0
    1.2990    3.3481    0.0000 C   0  0  0  0  0  0  0  0  0  0  0  0
    2.7990    3.3481    0.0000 O   0  0  0  0  0  0  0  0  0  0  0  0
    0.5490    4.6471    0.0000 O   0  0  0  0  0  0  0  0  0  0  0  0
  1  2  1  0
  2  3  1  0
  2  4  1  0
  4  5  1  0
  5  6  1  0
  6  7  1  0
  7  8  1  0
  8  9  2  0
  8 10  2  0
  8 11  1  0
 11 12  1  0
 11 13  1  0
 11 14  1  0
 14 15  1  0
 14 16  1  0
 14 17  1  0
 17 18  1  0
 17 19  1  0
 17 20  1  0
  2 21  1  0
 21 22  1  0
 22 23  2  0
 22 24  1  0
M  CHG  1   2   1
M  END
$$$$

     RDKit          2D

 21 20  0  0  0  0  0  0  0  0999 V2000
    1.2990    2.2500    0.0000 O   0  0  0  0  0  0  0  0  0  0  0  0
    1.2990    0.7500    0.0000 C   0  0  0  0  0  0  0  0  0  0  0  0
    2.5981   -0.0000    0.0000 O   0  0  0  0  0  0  0  0  0  0  0  0
    0.0000    0.0000    0.0000 C   0  0  0  0  0  0  0  0  0  0  0  0
   -1.2990    0.7500    0.0000 C   0  0  0  0  0  0  0  0  0  0  0  0
   -2.5981    0.0000    0.0000 S   0  0  0  0  0  0  0  0  0  0  0  0
   -3.8971    0.7500    0.0000 C   0  0  0  0  0  0  0  0  0  0  0  0
   -5.1962    0.0000    0.0000 C   0  0  0  0  0  0  0  0  0  0  0  0
   -6.4952    0.7500    0.0000 C   0  0  0  0  0  0  0  0  0  0  0  0
   -7.2452   -0.5490    0.0000 F   0  0  0  0  0  0  0  0  0  0  0  0
   -5.7452    2.0490    0.0000 F   0  0  0  0  0  0  0  0  0  0  0  0
   -7.7942    1.5000    0.0000 C   0  0  0  0  0  0  0  0  0  0  0  0
   -7.0442    2.7990    0.0000 F   0  0  0  0  0  0  0  0  0  0  0  0
   -8.5442    0.2010    0.0000 F   0  0  0  0  0  0  0  0  0  0  0  0
   -9.0933    2.2500    0.0000 C   0  0  0  0  0  0  0  0  0  0  0  0
   -9.8433    0.9510    0.0000 F   0  0  0  0  0  0  0  0  0  0  0  0
   -8.3433    3.5490    0.0000 F   0  0  0  0  0  0  0  0  0  0  0  0
  -10.3923    3.0000    0.0000 C   0  0  0  0  0  0  0  0  0  0  0  0
  -11.6913    3.7500    0.0000 F   0  0  0  0  0  0  0  0  0  0  0  0
   -9.6423    4.2990    0.0000 F   0  0  0  0  0  0  0  0  0  0  0  0
  -11.1423    1.7010    0.0000 F   0  0  0  0  0  0  0  0  0  0  0  0
  1  2  2  0
  2  3  1  0
  2  4  1  0
  4  5  1  0
  5  6  1  0
  6  7  1  0
  7  8  1  0
  8  9  1  0
  9 10  1  0
  9 11  1  0
  9 12  1  0
 12 13  1  0
 12 14  1  0
 12 15  1  0
 15 16  1  0
 15 17  1  0
 15 18  1  0
 18 19  1  0
 18 20  1  0
 18 21  1  0
M  END
$$$$

     RDKit          2D

 30 29  0  0  0  0  0  0  0  0999 V2000
   -9.8433    3.9510    0.0000 O   0  0  0  0  0  0  0  0  0  0  0  0
   -8.5442    3.2010    0.0000 S   0  0  0  0  0  0  0  0  0  0  0  0
   -7.9076    2.7212    0.0000 O   0  0  0  0  0  0  0  0  0  0  0  0
   -9.2942    1.9019    0.0000 O   0  0  0  0  0  0  0  0  0  0  0  0
   -7.7942    4.5000    0.0000 C   0  0  0  0  0  0  0  0  0  0  0  0
   -9.0933    5.2500    0.0000 F   0  0  0  0  0  0  0  0  0  0  0  0
   -7.0442    5.7990    0.0000 F   0  0  0  0  0  0  0  0  0  0  0  0
   -6.4952    3.7500    0.0000 C   0  0  0  0  0  0  0  0  0  0  0  0
   -6.8413    2.9347    0.0000 F   0  0  0  0  0  0  0  0  0  0  0  0
   -5.7452    5.0490    0.0000 F   0  0  0  0  0  0  0  0  0  0  0  0
   -5.1962    3.0000    0.0000 C   0  0  0  0  0  0  0  0  0  0  0  0
   -4.4462    4.2990    0.0000 F   0  0  0  0  0  0  0  0  0  0  0  0
   -5.9462    1.7010    0.0000 F   0  0  0  0  0  0  0  0  0  0  0  0
   -3.8971    2.2500    0.0000 C   0  0  0  0  0  0  0  0  0  0  0  0
   -4.6471    0.9510    0.0000 F   0  0  0  0  0  0  0  0  0  0  0  0
   -3.1471    3.5490    0.0000 F   0  0  0  0  0  0  0  0  0  0  0  0
   -2.5981    1.5000    0.0000 C   0  0  0  0  0  0  0  0  0  0  0  0
   -1.8481    2.7990    0.0000 F   0  0  0  0  0  0  0  0  0  0  0  0
   -3.3481    0.2010    0.0000 F   0  0  0  0  0  0  0  0  0  0  0  0
   -1.2990    0.7500    0.0000 C   0  0  0  0  0  0  0  0  0  0  0  0
   -2.0490   -0.5490    0.0000 F   0  0  0  0  0  0  0  0  0  0  0  0
   -0.5490    2.0490    0.0000 F   0  0  0  0  0  0  0  0  0  0  0  0
    0.0000    0.0000    0.0000 C   0  0  0  0  0  0  0  0  0  0  0  0
   -0.0000   -1.5000    0.0000 F   0  0  0  0  0  0  0  0  0  0  0  0
    1.2990    0.7500    0.0000 C   0  0  0  0  0  0  0  0  0  0  0  0
    1.2990    2.2500    0.0000 F   0  0  0  0  0  0  0  0  0  0  0  0
    2.5981   -0.0000    0.0000 C   0  0  0  0  0  0  0  0  0  0  0  0
    3.8971   -0.7500    0.0000 F   0  0  0  0  0  0  0  0  0  0  0  0
    3.3481    1.2990    0.0000 F   0  0  0  0  0  0  0  0  0  0  0  0
    1.8481   -1.2990    0.0000 F   0  0  0  0  0  0  0  0  0  0  0  0
  1  2  2  0
  2  3  2  0
  2  4  1  0
  2  5  1  0
  5  6  1  0
  5  7  1  0
  5  8  1  0
  8  9  1  0
  8 10  1  0
  8 11  1  0
 11 12  1  0
 11 13  1  0
 11 14  1  0
 14 15  1  0
 14 16  1  0
 14 17  1  0
 17 18  1  0
 17 19  1  0
 17 20  1  0
 20 21  1  0
 20 22  1  0
 20 23  1  0
 23 24  1  0
 23 25  2  3
 25 26  1  0
 25 27  1  0
 27 28  1  0
 27 29  1  0
 27 30  1  0
M  END
$$$$

     RDKit          2D

 44 43  0  0  0  0  0  0  0  0999 V2000
    0.0000   -0.0000    0.0000 C   0  0  0  0  0  0  0  0  0  0  0  0
    1.2990    0.7500    0.0000 C   0  0  0  0  0  0  0  0  0  0  0  0
    2.5981   -0.0000    0.0000 O   0  0  0  0  0  0  0  0  0  0  0  0
    3.8971    0.7500    0.0000 Si  0  0  0  0  0  4  0  0  0  0  0  0
    5.1962    1.5000    0.0000 C   0  0  0  0  0  0  0  0  0  0  0  0
    5.1962    3.0000    0.0000 C   0  0  0  0  0  0  0  0  0  0  0  0
    6.4952    3.7500    0.0000 C   0  0  0  0  0  0  0  0  0  0  0  0
    6.4952    5.2500    0.0000 N   0  0  0  0  0  0  0  0  0  0  0  0
    7.7942    6.0000    0.0000 C   0  0  0  0  0  0  0  0  0  0  0  0
    7.7942    7.5000    0.0000 C   0  0  0  0  0  0  0  0  0  0  0  0
    5.1962    6.0000    0.0000 S   0  0  0  0  0  0  0  0  0  0  0  0
    4.4462    4.7010    0.0000 O   0  0  0  0  0  0  0  0  0  0  0  0
    5.6759    6.6366    0.0000 O   0  0  0  0  0  0  0  0  0  0  0  0
    3.8971    6.7500    0.0000 C   0  0  0  0  0  0  0  0  0  0  0  0
    3.1471    5.4510    0.0000 F   0  0  0  0  0  0  0  0  0  0  0  0
    2.5981    7.5000    0.0000 F   0  0  0  0  0  0  0  0  0  0  0  0
    4.6471    8.0490    0.0000 C   0  0  0  0  0  0  0  0  0  0  0  0
    5.4624    7.7030    0.0000 F   0  0  0  0  0  0  0  0  0  0  0  0
    3.3481    8.7990    0.0000 F   0  0  0  0  0  0  0  0  0  0  0  0
    5.3971    9.3481    0.0000 C   0  0  0  0  0  0  0  0  0  0  0  0
    6.6962    8.5981    0.0000 F   0  0  0  0  0  0  0  0  0  0  0  0
    4.0981   10.0981    0.0000 F   0  0  0  0  0  0  0  0  0  0  0  0
    6.1471   10.6471    0.0000 C   0  0  0  0  0  0  0  0  0  0  0  0
    4.8481   11.3971    0.0000 F   0  0  0  0  0  0  0  0  0  0  0  0
    7.4462    9.8971    0.0000 F   0  0  0  0  0  0  0  0  0  0  0  0
    6.8971   11.9462    0.0000 C   0  0  0  0  0  0  0  0  0  0  0  0
    5.5981   12.6962    0.0000 F   0  0  0  0  0  0  0  0  0  0  0  0
    8.1962   11.1962    0.0000 F   0  0  0  0  0  0  0  0  0  0  0  0
    7.6471   13.2452    0.0000 C   0  0  0  0  0  0  0  0  0  0  0  0
    8.9462   12.4952    0.0000 F   0  0  0  0  0  0  0  0  0  0  0  0
    6.3481   13.9952    0.0000 F   0  0  0  0  0  0  0  0  0  0  0  0
    8.3971   14.5442    0.0000 C   0  0  0  0  0  0  0  0  0  0  0  0
    7.0981   15.2942    0.0000 F   0  0  0  0  0  0  0  0  0  0  0  0
    9.6962   13.7942    0.0000 F   0  0  0  0  0  0  0  0  0  0  0  0
    9.1471   15.8433    0.0000 C   0  0  0  0  0  0  0  0  0  0  0  0
    9.8971   17.1423    0.0000 F   0  0  0  0  0  0  0  0  0  0  0  0
   10.4462   15.0933    0.0000 F   0  0  0  0  0  0  0  0  0  0  0  0
    7.8481   16.5933    0.0000 F   0  0  0  0  0  0  0  0  0  0  0  0
    3.1471    2.0490    0.0000 O   0  0  0  0  0  0  0  0  0  0  0  0
    3.8971    3.3481    0.0000 C   0  0  0  0  0  0  0  0  0  0  0  0
    3.1471    4.6471    0.0000 C   0  0  0  0  0  0  0  0  0  0  0  0
    4.6471   -0.5490    0.0000 O   0  0  0  0  0  0  0  0  0  0  0  0
    6.1471   -0.5490    0.0000 C   0  0  0  0  0  0  0  0  0  0  0  0
    6.8971   -1.8481    0.0000 C   0  0  0  0  0  0  0  0  0  0  0  0
  1  2  1  0
  2  3  1  0
  3  4  1  0
  4  5  1  0
  5  6  1  0
  6  7  1  0
  7  8  1  0
  8  9  1  0
  9 10  1  0
  8 11  1  0
 11 12  2  0
 11 13  2  0
 11 14  1  0
 14 15  1  0
 14 16  1  0
 14 17  1  0
 17 18  1  0
 17 19  1  0
 17 20  1  0
 20 21  1  0
 20 22  1  0
 20 23  1  0
 23 24  1  0
 23 25  1  0
 23 26  1  0
 26 27  1  0
 26 28  1  0
 26 29  1  0
 29 30  1  0
 29 31  1  0
 29 32  1  0
 32 33  1  0
 32 34  1  0
 32 35  1  0
 35 36  1  0
 35 37  1  0
 35 38  1  0
  4 39  1  0
 39 40  1  0
 40 41  1  0
  4 42  1  0
 42 43  1  0
 43 44  1  0
M  END
$$$$

     RDKit          2D

 26 25  0  0  0  0  0  0  0  0999 V2000
    0.0000    0.0000    0.0000 C   0  0  0  0  0  0  0  0  0  0  0  0
    1.2990    0.7500    0.0000 O   0  0  0  0  0  0  0  0  0  0  0  0
    2.5981   -0.0000    0.0000 Si  0  0  0  0  0  4  0  0  0  0  0  0
    3.8971   -0.7500    0.0000 C   0  0  0  0  0  0  0  0  0  0  0  0
    3.8971   -2.2500    0.0000 C   0  0  0  0  0  0  0  0  0  0  0  0
    5.1962   -3.0000    0.0000 C   0  0  0  0  0  0  0  0  0  0  0  0
    5.1962   -4.5000    0.0000 N   0  0  0  0  0  0  0  0  0  0  0  0
    6.4952   -5.2500    0.0000 C   0  0  0  0  0  0  0  0  0  0  0  0
    7.7942   -4.5000    0.0000 O   0  0  0  0  0  0  0  0  0  0  0  0
    6.4952   -6.7500    0.0000 C   0  0  0  0  0  0  0  0  0  0  0  0
    7.9952   -6.7500    0.0000 F   0  0  0  0  0  0  0  0  0  0  0  0
    4.9952   -6.7500    0.0000 F   0  0  0  0  0  0  0  0  0  0  0  0
    6.4952   -8.2500    0.0000 C   0  0  0  0  0  0  0  0  0  0  0  0
    4.9952   -8.2500    0.0000 F   0  0  0  0  0  0  0  0  0  0  0  0
    7.9952   -8.2500    0.0000 F   0  0  0  0  0  0  0  0  0  0  0  0
    6.4952   -9.7500    0.0000 C   0  0  0  0  0  0  0  0  0  0  0  0
    7.9952   -9.7500    0.0000 F   0  0  0  0  0  0  0  0  0  0  0  0
    4.9952   -9.7500    0.0000 F   0  0  0  0  0  0  0  0  0  0  0  0
    6.4952  -11.2500    0.0000 C   0  0  0  0  0  0  0  0  0  0  0  0
    6.4952  -12.7500    0.0000 F   0  0  0  0  0  0  0  0  0  0  0  0
    4.9952  -11.2500    0.0000 F   0  0  0  0  0  0  0  0  0  0  0  0
    7.9952  -11.2500    0.0000 F   0  0  0  0  0  0  0  0  0  0  0  0
    1.8481   -1.2990    0.0000 O   0  0  0  0  0  0  0  0  0  0  0  0
    2.5981   -2.5981    0.0000 C   0  0  0  0  0  0  0  0  0  0  0  0
    3.3481    1.2990    0.0000 O   0  0  0  0  0  0  0  0  0  0  0  0
    4.8481    1.2990    0.0000 C   0  0  0  0  0  0  0  0  0  0  0  0
  1  2  1  0
  2  3  1  0
  3  4  1  0
  4  5  1  0
  5  6  1  0
  6  7  1  0
  7  8  1  0
  8  9  2  0
  8 10  1  0
 10 11  1  0
 10 12  1  0
 10 13  1  0
 13 14  1  0
 13 15  1  0
 13 16  1  0
 16 17  1  0
 16 18  1  0
 16 19  1  0
 19 20  1  0
 19 21  1  0
 19 22  1  0
  3 23  1  0
 23 24  1  0
  3 25  1  0
 25 26  1  0
M  END
$$$$

     RDKit          2D

 58 56  0  0  0  0  0  0  0  0999 V2000
    8.2620   -2.3692    0.0000 O   0  0  0  0  0  0  0  0  0  0  0  0
    8.8481   -3.7500    0.0000 S   0  0  0  0  0  0  0  0  0  0  0  0
    9.5981   -5.0490    0.0000 O   0  0  0  0  0  0  0  0  0  0  0  0
   10.1471   -3.0000    0.0000 N   0  0  0  0  0  0  0  0  0  0  0  0
   10.1471   -1.5000    0.0000 S   0  0  0  0  0  0  0  0  0  0  0  0
    8.6471   -1.5000    0.0000 O   0  0  0  0  0  0  0  0  0  0  0  0
   10.9383   -1.5972    0.0000 O   0  0  0  0  0  0  0  0  0  0  0  0
   10.1471    0.0000    0.0000 C   0  0  0  0  0  0  0  0  0  0  0  0
    8.6471    0.0000    0.0000 F   0  0  0  0  0  0  0  0  0  0  0  0
   10.1471    1.5000    0.0000 F   0  0  0  0  0  0  0  0  0  0  0  0
   11.6471    0.0000    0.0000 C   0  0  0  0  0  0  0  0  0  0  0  0
   11.7551   -0.8791    0.0000 F   0  0  0  0  0  0  0  0  0  0  0  0
   11.6471    1.5000    0.0000 F   0  0  0  0  0  0  0  0  0  0  0  0
   13.1471   -0.0000    0.0000 C   0  0  0  0  0  0  0  0  0  0  0  0
   13.1471    1.5000    0.0000 F   0  0  0  0  0  0  0  0  0  0  0  0
   13.1471   -1.5000    0.0000 F   0  0  0  0  0  0  0  0  0  0  0  0
   14.6471   -0.0000    0.0000 C   0  0  0  0  0  0  0  0  0  0  0  0
   14.6471   -1.5000    0.0000 F   0  0  0  0  0  0  0  0  0  0  0  0
   14.6471    1.5000    0.0000 F   0  0  0  0  0  0  0  0  0  0  0  0
   16.1471   -0.0000    0.0000 C   0  0  0  0  0  0  0  0  0  0  0  0
   16.1471   -1.5000    0.0000 F   0  0  0  0  0  0  0  0  0  0  0  0
   16.1471    1.5000    0.0000 F   0  0  0  0  0  0  0  0  0  0  0  0
   17.6471   -0.0000    0.0000 C   0  0  0  0  0  0  0  0  0  0  0  0
   17.6471    1.5000    0.0000 F   0  0  0  0  0  0  0  0  0  0  0  0
   17.6471   -1.5000    0.0000 F   0  0  0  0  0  0  0  0  0  0  0  0
   19.1471   -0.0000    0.0000 C   0  0  0  0  0  0  0  0  0  0  0  0
   19.1471   -1.5000    0.0000 F   0  0  0  0  0  0  0  0  0  0  0  0
   19.1471    1.5000    0.0000 F   0  0  0  0  0  0  0  0  0  0  0  0
   20.6471   -0.0000    0.0000 C   0  0  0  0  0  0  0  0  0  0  0  0
   22.1471   -0.0000    0.0000 F   0  0  0  0  0  0  0  0  0  0  0  0
   20.6471    1.5000    0.0000 F   0  0  0  0  0  0  0  0  0  0  0  0
   20.6471   -1.5000    0.0000 F   0  0  0  0  0  0  0  0  0  0  0  0
    7.5490   -4.5000    0.0000 C   0  0  0  0  0  0  0  0  0  0  0  0
    8.2990   -5.7990    0.0000 F   0  0  0  0  0  0  0  0  0  0  0  0
    6.2500   -5.2500    0.0000 F   0  0  0  0  0  0  0  0  0  0  0  0
    6.7990   -3.2010    0.0000 C   0  0  0  0  0  0  0  0  0  0  0  0
    7.9970   -2.2982    0.0000 F   0  0  0  0  0  0  0  0  0  0  0  0
    5.5000   -3.9510    0.0000 F   0  0  0  0  0  0  0  0  0  0  0  0
    6.0490   -1.9019    0.0000 C   0  0  0  0  0  0  0  0  0  0  0  0
    7.3481   -1.1519    0.0000 F   0  0  0  0  0  0  0  0  0  0  0  0
    4.7500   -2.6519    0.0000 F   0  0  0  0  0  0  0  0  0  0  0  0
    5.2990   -0.6029    0.0000 C   0  0  0  0  0  0  0  0  0  0  0  0
    4.0000   -1.3529    0.0000 F   0  0  0  0  0  0  0  0  0  0  0  0
    6.5981    0.1471    0.0000 F   0  0  0  0  0  0  0  0  0  0  0  0
    4.5490    0.6962    0.0000 C   0  0  0  0  0  0  0  0  0  0  0  0
    3.2500   -0.0538    0.0000 F   0  0  0  0  0  0  0  0  0  0  0  0
    5.8481    1.4462    0.0000 F   0  0  0  0  0  0  0  0  0  0  0  0
    3.7990    1.9952    0.0000 C   0  0  0  0  0  0  0  0  0  0  0  0
    5.0981    2.7452    0.0000 F   0  0  0  0  0  0  0  0  0  0  0  0
    2.5000    1.2452    0.0000 F   0  0  0  0  0  0  0  0  0  0  0  0
    3.0490    3.2942    0.0000 C   0  0  0  0  0  0  0  0  0  0  0  0
    1.7500    2.5442    0.0000 F   0  0  0  0  0  0  0  0  0  0  0  0
    4.3481    4.0442    0.0000 F   0  0  0  0  0  0  0  0  0  0  0  0
    2.2990    4.5933    0.0000 C   0  0  0  0  0  0  0  0  0  0  0  0
    1.5490    5.8923    0.0000 F   0  0  0  0  0  0  0  0  0  0  0  0
    3.5981    5.3433    0.0000 F   0  0  0  0  0  0  0  0  0  0  0  0
    1.0000    3.8433    0.0000 F   0  0  0  0  0  0  0  0  0  0  0  0
    0.0000    0.0000    0.0000 Li  0  0  0  0  0 15  0  0  0  0  0  0
  1  2  2  0
  2  3  2  0
  2  4  1  0
  4  5  1  0
  5  6  2  0
  5  7  2  0
  5  8  1  0
  8  9  1  0
  8 10  1  0
  8 11  1  0
 11 12  1  0
 11 13  1  0
 11 14  1  0
 14 15  1  0
 14 16  1  0
 14 17  1  0
 17 18  1  0
 17 19  1  0
 17 20  1  0
 20 21  1  0
 20 22  1  0
 20 23  1  0
 23 24  1  0
 23 25  1  0
 23 26  1  0
 26 27  1  0
 26 28  1  0
 26 29  1  0
 29 30  1  0
 29 31  1  0
 29 32  1  0
  2 33  1  0
 33 34  1  0
 33 35  1  0
 33 36  1  0
 36 37  1  0
 36 38  1  0
 36 39  1  0
 39 40  1  0
 39 41  1  0
 39 42  1  0
 42 43  1  0
 42 44  1  0
 42 45  1  0
 45 46  1  0
 45 47  1  0
 45 48  1  0
 48 49  1  0
 48 50  1  0
 48 51  1  0
 51 52  1  0
 51 53  1  0
 51 54  1  0
 54 55  1  0
 54 56  1  0
 54 57  1  0
M  CHG  2   4  -1  58   1
M  END
$$$$

     RDKit          2D

 11 10  0  0  0  0  0  0  0  0999 V2000
    0.0000    0.0000    0.0000 C   0  0  0  0  0  0  0  0  0  0  0  0
    1.2990    0.7500    0.0000 C   0  0  0  0  0  0  0  0  0  0  0  0
    2.5981   -0.0000    0.0000 C   0  0  0  0  0  0  0  0  0  0  0  0
    3.3481    1.2990    0.0000 F   0  0  0  0  0  0  0  0  0  0  0  0
    1.8481   -1.2990    0.0000 F   0  0  0  0  0  0  0  0  0  0  0  0
    3.8971   -0.7500    0.0000 C   0  0  0  0  0  0  0  0  0  0  0  0
    5.1962   -0.0000    0.0000 F   0  0  0  0  0  0  0  0  0  0  0  0
    3.8971   -2.2500    0.0000 C   0  0  0  0  0  0  0  0  0  0  0  0
    3.8971   -3.7500    0.0000 F   0  0  0  0  0  0  0  0  0  0  0  0
    5.3971   -2.2500    0.0000 F   0  0  0  0  0  0  0  0  0  0  0  0
    2.3971   -2.2500    0.0000 F   0  0  0  0  0  0  0  0  0  0  0  0
  1  2  2  0
  2  3  1  0
  3  4  1  0
  3  5  1  0
  3  6  1  0
  6  7  1  0
  6  8  1  0
  8  9  1  0
  8 10  1  0
  8 11  1  0
M  END
$$$$

     RDKit          2D

 37 36  0  0  0  0  0  0  0  0999 V2000
    3.0000   -1.5000    0.0000 O   0  0  0  0  0  0  0  0  0  0  0  0
    3.0000    0.0000    0.0000 S   0  0  0  0  0  0  0  0  0  0  0  0
    3.0000    1.5000    0.0000 O   0  0  0  0  0  0  0  0  0  0  0  0
    4.5000    0.0000    0.0000 O   0  0  0  0  0  0  0  0  0  0  0  0
    1.5000    0.0000    0.0000 C   0  0  0  0  0  0  0  0  0  0  0  0
    0.7500   -1.2990    0.0000 C   0  0  0  0  0  0  0  0  0  0  0  0
   -0.7500   -1.2990    0.0000 C   0  0  0  0  0  0  0  0  0  0  0  0
   -1.5000    0.0000    0.0000 C   0  0  0  0  0  0  0  0  0  0  0  0
   -3.0000    0.0000    0.0000 O   0  0  0  0  0  0  0  0  0  0  0  0
   -3.7500    1.2990    0.0000 C   0  0  0  0  0  0  0  0  0  0  0  0
   -2.4510    2.0490    0.0000 F   0  0  0  0  0  0  0  0  0  0  0  0
   -5.0490    0.5490    0.0000 F   0  0  0  0  0  0  0  0  0  0  0  0
   -4.5000    2.5981    0.0000 C   0  0  0  0  0  0  0  0  0  0  0  0
   -5.7990    1.8481    0.0000 F   0  0  0  0  0  0  0  0  0  0  0  0
   -3.2010    3.3481    0.0000 F   0  0  0  0  0  0  0  0  0  0  0  0
   -5.2500    3.8971    0.0000 C   0  0  0  0  0  0  0  0  0  0  0  0
   -3.9510    4.6471    0.0000 F   0  0  0  0  0  0  0  0  0  0  0  0
   -6.5490    3.1471    0.0000 F   0  0  0  0  0  0  0  0  0  0  0  0
   -6.0000    5.1962    0.0000 C   0  0  0  0  0  0  0  0  0  0  0  0
   -7.2990    4.4462    0.0000 F   0  0  0  0  0  0  0  0  0  0  0  0
   -4.7010    5.9462    0.0000 F   0  0  0  0  0  0  0  0  0  0  0  0
   -6.7500    6.4952    0.0000 C   0  0  0  0  0  0  0  0  0  0  0  0
   -8.0490    5.7452    0.0000 F   0  0  0  0  0  0  0  0  0  0  0  0
   -5.4510    7.2452    0.0000 F   0  0  0  0  0  0  0  0  0  0  0  0
   -7.5000    7.7942    0.0000 C   0  0  0  0  0  0  0  0  0  0  0  0
   -6.2010    8.5442    0.0000 F   0  0  0  0  0  0  0  0  0  0  0  0
   -8.7990    7.0442    0.0000 F   0  0  0  0  0  0  0  0  0  0  0  0
   -8.2500    9.0933    0.0000 C   0  0  0  0  0  0  0  0  0  0  0  0
   -9.5490    8.3433    0.0000 F   0  0  0  0  0  0  0  0  0  0  0  0
   -6.9510    9.8433    0.0000 F   0  0  0  0  0  0  0  0  0  0  0  0
   -9.0000   10.3923    0.0000 C   0  0  0  0  0  0  0  0  0  0  0  0
   -9.7500   11.6913    0.0000 F   0  0  0  0  0  0  0  0  0  0  0  0
   -7.7010   11.1423    0.0000 F   0  0  0  0  0  0  0  0  0  0  0  0
  -10.2990    9.6423    0.0000 F   0  0  0  0  0  0  0  0  0  0  0  0
   -0.7500    1.2990    0.0000 C   0  0  0  0  0  0  0  0  0  0  0  0
    0.7500    1.2990    0.0000 C   0  0  0  0  0  0  0  0  0  0  0  0
    0.0000   12.6913    0.0000 N   0  0  0  0  0  0  0  0  0  0  0  0
  1  2  2  0
  2  3  2  0
  2  4  1  0
  2  5  1  0
  5  6  2  0
  6  7  1  0
  7  8  2  0
  8  9  1  0
  9 10  1  0
 10 11  1  0
 10 12  1  0
 10 13  1  0
 13 14  1  0
 13 15  1  0
 13 16  1  0
 16 17  1  0
 16 18  1  0
 16 19  1  0
 19 20  1  0
 19 21  1  0
 19 22  1  0
 22 23  1  0
 22 24  1  0
 22 25  1  0
 25 26  1  0
 25 27  1  0
 25 28  1  0
 28 29  1  0
 28 30  1  0
 28 31  1  0
 31 32  1  0
 31 33  1  0
 31 34  1  0
  8 35  1  0
 35 36  2  0
 36  5  1  0
M  CHG  2   4  -1  37   1
M  END
$$$$

     RDKit          2D

 52 51  0  0  0  0  0  0  0  0999 V2000
   -0.0000    0.0000    0.0000 C   0  0  0  0  0  0  0  0  0  0  0  0
    1.2990    0.7500    0.0000 C   0  0  0  0  0  0  0  0  0  0  0  0
    2.5981   -0.0000    0.0000 C   0  0  0  0  0  0  0  0  0  0  0  0
    3.8971    0.7500    0.0000 C   0  0  0  0  0  0  0  0  0  0  0  0
    5.1962   -0.0000    0.0000 C   0  0  0  0  0  0  0  0  0  0  0  0
    6.4952    0.7500    0.0000 C   0  0  0  0  0  0  0  0  0  0  0  0
    7.7942   -0.0000    0.0000 N   0  0  0  0  0  0  0  0  0  0  0  0
    9.0933    0.7500    0.0000 C   0  0  0  0  0  0  0  0  0  0  0  0
   10.3923   -0.0000    0.0000 C   0  0  0  0  0  0  0  0  0  0  0  0
   10.3923   -1.5000    0.0000 O   0  0  0  0  0  0  0  0  0  0  0  0
   11.6913    0.7500    0.0000 C   0  0  0  0  0  0  0  0  0  0  0  0
   12.9904   -0.0000    0.0000 O   0  0  0  0  0  0  0  0  0  0  0  0
    7.7942   -1.5000    0.0000 S   0  0  0  0  0  0  0  0  0  0  0  0
    7.0030   -1.4028    0.0000 O   0  0  0  0  0  0  0  0  0  0  0  0
    9.2942   -1.5000    0.0000 O   0  0  0  0  0  0  0  0  0  0  0  0
    7.7942   -3.0000    0.0000 C   0  0  0  0  0  0  0  0  0  0  0  0
    9.2942   -3.0000    0.0000 F   0  0  0  0  0  0  0  0  0  0  0  0
    7.7942   -4.5000    0.0000 F   0  0  0  0  0  0  0  0  0  0  0  0
    6.2942   -3.0000    0.0000 C   0  0  0  0  0  0  0  0  0  0  0  0
    6.1863   -2.1209    0.0000 F   0  0  0  0  0  0  0  0  0  0  0  0
    6.2942   -4.5000    0.0000 F   0  0  0  0  0  0  0  0  0  0  0  0
    4.7942   -3.0000    0.0000 C   0  0  0  0  0  0  0  0  0  0  0  0
    4.7942   -1.5000    0.0000 F   0  0  0  0  0  0  0  0  0  0  0  0
    4.7942   -4.5000    0.0000 F   0  0  0  0  0  0  0  0  0  0  0  0
    3.2942   -3.0000    0.0000 C   0  0  0  0  0  0  0  0  0  0  0  0
    3.2942   -1.5000    0.0000 F   0  0  0  0  0  0  0  0  0  0  0  0
    3.2942   -4.5000    0.0000 F   0  0  0  0  0  0  0  0  0  0  0  0
    1.7942   -3.0000    0.0000 C   0  0  0  0  0  0  0  0  0  0  0  0
    1.7942   -1.5000    0.0000 F   0  0  0  0  0  0  0  0  0  0  0  0
    1.7942   -4.5000    0.0000 F   0  0  0  0  0  0  0  0  0  0  0  0
    0.2942   -3.0000    0.0000 C   0  0  0  0  0  0  0  0  0  0  0  0
    0.2942   -1.5000    0.0000 F   0  0  0  0  0  0  0  0  0  0  0  0
    0.2942   -4.5000    0.0000 F   0  0  0  0  0  0  0  0  0  0  0  0
   -1.2058   -3.0000    0.0000 C   0  0  0  0  0  0  0  0  0  0  0  0
   -1.2058   -1.5000    0.0000 F   0  0  0  0  0  0  0  0  0  0  0  0
   -1.2058   -4.5000    0.0000 F   0  0  0  0  0  0  0  0  0  0  0  0
   -2.7058   -3.0000    0.0000 C   0  0  0  0  0  0  0  0  0  0  0  0
   -2.7058   -4.5000    0.0000 F   0  0  0  0  0  0  0  0  0  0  0  0
   -2.7058   -1.5000    0.0000 F   0  0  0  0  0  0  0  0  0  0  0  0
   -4.2058   -3.0000    0.0000 C   0  0  0  0  0  0  0  0  0  0  0  0
   -4.2058   -1.5000    0.0000 F   0  0  0  0  0  0  0  0  0  0  0  0
   -4.2058   -4.5000    0.0000 F   0  0  0  0  0  0  0  0  0  0  0  0
   -5.7058   -3.0000    0.0000 C   0  0  0  0  0  0  0  0  0  0  0  0
   -5.7058   -4.5000    0.0000 F   0  0  0  0  0  0  0  0  0  0  0  0
   -5.7058   -1.5000    0.0000 F   0  0  0  0  0  0  0  0  0  0  0  0
   -7.2058   -3.0000    0.0000 C   0  0  0  0  0  0  0  0  0  0  0  0
   -7.2058   -1.5000    0.0000 F   0  0  0  0  0  0  0  0  0  0  0  0
   -7.2058   -4.5000    0.0000 F   0  0  0  0  0  0  0  0  0  0  0  0
   -8.7058   -3.0000    0.0000 C   0  0  0  0  0  0  0  0  0  0  0  0
  -10.2058   -3.0000    0.0000 F   0  0  0  0  0  0  0  0  0  0  0  0
   -8.7058   -4.5000    0.0000 F   0  0  0  0  0  0  0  0  0  0  0  0
   -8.7058   -1.5000    0.0000 F   0  0  0  0  0  0  0  0  0  0  0  0
  1  2  1  0
  2  3  1  0
  3  4  1  0
  4  5  1  0
  5  6  1  0
  6  7  1  0
  7  8  1  0
  8  9  1  0
  9 10  1  0
  9 11  1  0
 11 12  1  0
  7 13  1  0
 13 14  2  0
 13 15  2  0
 13 16  1  0
 16 17  1  0
 16 18  1  0
 16 19  1  0
 19 20  1  0
 19 21  1  0
 19 22  1  0
 22 23  1  0
 22 24  1  0
 22 25  1  0
 25 26  1  0
 25 27  1  0
 25 28  1  0
 28 29  1  0
 28 30  1  0
 28 31  1  0
 31 32  1  0
 31 33  1  0
 31 34  1  0
 34 35  1  0
 34 36  1  0
 34 37  1  0
 37 38  1  0
 37 39  1  0
 37 40  1  0
 40 41  1  0
 40 42  1  0
 40 43  1  0
 43 44  1  0
 43 45  1  0
 43 46  1  0
 46 47  1  0
 46 48  1  0
 46 49  1  0
 49 50  1  0
 49 51  1  0
 49 52  1  0
M  END
$$$$

     RDKit          2D

 28 27  0  0  0  0  0  0  0  0999 V2000
    0.0000    0.0000    0.0000 C   0  0  0  0  0  0  0  0  0  0  0  0
    1.2990    0.7500    0.0000 N   0  0  0  0  0  0  0  0  0  0  0  0
    2.5981    1.5000    0.0000 C   0  0  0  0  0  0  0  0  0  0  0  0
    0.5490    2.0490    0.0000 O   0  0  0  0  0  0  0  0  0  0  0  0
    2.0490   -0.5490    0.0000 C   0  0  0  0  0  0  0  0  0  0  0  0
    3.5490   -0.5490    0.0000 C   0  0  0  0  0  0  0  0  0  0  0  0
    4.2990   -1.8481    0.0000 C   0  0  0  0  0  0  0  0  0  0  0  0
    5.5981   -1.0981    0.0000 F   0  0  0  0  0  0  0  0  0  0  0  0
    3.0000   -2.5981    0.0000 F   0  0  0  0  0  0  0  0  0  0  0  0
    5.0490   -3.1471    0.0000 C   0  0  0  0  0  0  0  0  0  0  0  0
    3.7500   -3.8971    0.0000 F   0  0  0  0  0  0  0  0  0  0  0  0
    6.3481   -2.3971    0.0000 F   0  0  0  0  0  0  0  0  0  0  0  0
    5.7990   -4.4462    0.0000 C   0  0  0  0  0  0  0  0  0  0  0  0
    7.0981   -3.6962    0.0000 F   0  0  0  0  0  0  0  0  0  0  0  0
    4.5000   -5.1962    0.0000 F   0  0  0  0  0  0  0  0  0  0  0  0
    6.5490   -5.7452    0.0000 C   0  0  0  0  0  0  0  0  0  0  0  0
    5.2500   -6.4952    0.0000 F   0  0  0  0  0  0  0  0  0  0  0  0
    7.8481   -4.9952    0.0000 F   0  0  0  0  0  0  0  0  0  0  0  0
    7.2990   -7.0442    0.0000 C   0  0  0  0  0  0  0  0  0  0  0  0
    8.5981   -6.2942    0.0000 F   0  0  0  0  0  0  0  0  0  0  0  0
    6.0000   -7.7942    0.0000 F   0  0  0  0  0  0  0  0  0  0  0  0
    8.0490   -8.3433    0.0000 C   0  0  0  0  0  0  0  0  0  0  0  0
    6.7500   -9.0933    0.0000 F   0  0  0  0  0  0  0  0  0  0  0  0
    9.3481   -7.5933    0.0000 F   0  0  0  0  0  0  0  0  0  0  0  0
    8.7990   -9.6423    0.0000 C   0  0  0  0  0  0  0  0  0  0  0  0
    9.5490  -10.9413    0.0000 F   0  0  0  0  0  0  0  0  0  0  0  0
   10.0981   -8.8923    0.0000 F   0  0  0  0  0  0  0  0  0  0  0  0
    7.5000  -10.3923    0.0000 F   0  0  0  0  0  0  0  0  0  0  0  0
  1  2  1  0
  2  3  1  0
  2  4  1  0
  2  5  1  0
  5  6  1  0
  6  7  1  0
  7  8  1  0
  7  9  1  0
  7 10  1  0
 10 11  1  0
 10 12  1  0
 10 13  1  0
 13 14  1  0
 13 15  1  0
 13 16  1  0
 16 17  1  0
 16 18  1  0
 16 19  1  0
 19 20  1  0
 19 21  1  0
 19 22  1  0
 22 23  1  0
 22 24  1  0
 22 25  1  0
 25 26  1  0
 25 27  1  0
 25 28  1  0
M  CHG  2   2   1   4  -1
M  END
$$$$

     RDKit          2D

 31 30  0  0  0  0  0  0  0  0999 V2000
    0.0000    0.0000    0.0000 C   0  0  0  0  0  0  0  0  0  0  0  0
    1.2990    0.7500    0.0000 C   0  0  0  0  0  0  0  0  0  0  0  0
    2.5981   -0.0000    0.0000 C   0  0  0  0  0  0  0  0  0  0  0  0
    2.5981   -1.5000    0.0000 O   0  0  0  0  0  0  0  0  0  0  0  0
    3.8971    0.7500    0.0000 O   0  0  0  0  0  0  0  0  0  0  0  0
    5.1962   -0.0000    0.0000 C   0  0  0  0  0  0  0  0  0  0  0  0
    6.4952    0.7500    0.0000 C   0  0  0  0  0  0  0  0  0  0  0  0
    7.7942   -0.0000    0.0000 O   0  0  0  0  0  0  0  0  0  0  0  0
    5.1962   -1.5000    0.0000 C   0  0  0  0  0  0  0  0  0  0  0  0
    6.4952   -2.2500    0.0000 O   0  0  0  0  0  0  0  0  0  0  0  0
    6.4952   -3.7500    0.0000 C   0  0  0  0  0  0  0  0  0  0  0  0
    7.7942   -4.5000    0.0000 C   0  0  0  0  0  0  0  0  0  0  0  0
    7.7942   -6.0000    0.0000 C   0  0  0  0  0  0  0  0  0  0  0  0
    9.2942   -6.0000    0.0000 F   0  0  0  0  0  0  0  0  0  0  0  0
    6.2942   -6.0000    0.0000 F   0  0  0  0  0  0  0  0  0  0  0  0
    7.7942   -7.5000    0.0000 C   0  0  0  0  0  0  0  0  0  0  0  0
    6.2942   -7.5000    0.0000 F   0  0  0  0  0  0  0  0  0  0  0  0
    9.2942   -7.5000    0.0000 F   0  0  0  0  0  0  0  0  0  0  0  0
    7.7942   -9.0000    0.0000 C   0  0  0  0  0  0  0  0  0  0  0  0
    9.2942   -9.0000    0.0000 F   0  0  0  0  0  0  0  0  0  0  0  0
    6.2942   -9.0000    0.0000 F   0  0  0  0  0  0  0  0  0  0  0  0
    7.7942  -10.5000    0.0000 C   0  0  0  0  0  0  0  0  0  0  0  0
    6.2942  -10.5000    0.0000 F   0  0  0  0  0  0  0  0  0  0  0  0
    9.2942  -10.5000    0.0000 F   0  0  0  0  0  0  0  0  0  0  0  0
    7.7942  -12.0000    0.0000 C   0  0  0  0  0  0  0  0  0  0  0  0
    9.2942  -12.0000    0.0000 F   0  0  0  0  0  0  0  0  0  0  0  0
    6.2942  -12.0000    0.0000 F   0  0  0  0  0  0  0  0  0  0  0  0
    7.7942  -13.5000    0.0000 C   0  0  0  0  0  0  0  0  0  0  0  0
    7.7942  -15.0000    0.0000 F   0  0  0  0  0  0  0  0  0  0  0  0
    6.2942  -13.5000    0.0000 F   0  0  0  0  0  0  0  0  0  0  0  0
    9.2942  -13.5000    0.0000 F   0  0  0  0  0  0  0  0  0  0  0  0
  1  2  2  0
  2  3  1  0
  3  4  2  0
  3  5  1  0
  5  6  1  0
  6  7  1  0
  7  8  1  0
  6  9  1  0
  9 10  1  0
 10 11  1  0
 11 12  1  0
 12 13  1  0
 13 14  1  0
 13 15  1  0
 13 16  1  0
 16 17  1  0
 16 18  1  0
 16 19  1  0
 19 20  1  0
 19 21  1  0
 19 22  1  0
 22 23  1  0
 22 24  1  0
 22 25  1  0
 25 26  1  0
 25 27  1  0
 25 28  1  0
 28 29  1  0
 28 30  1  0
 28 31  1  0
M  END
$$$$

     RDKit          2D

 42 39  0  0  0  0  0  0  0  0999 V2000
    0.0000    0.0000    0.0000 C   0  0  0  0  0  0  0  0  0  0  0  0
    1.2990    0.7500    0.0000 N   0  0  0  0  0  0  0  0  0  0  0  0
    2.6798    1.3361    0.0000 C   0  0  0  0  0  0  0  0  0  0  0  0
    0.5490    2.0490    0.0000 C   0  0  0  0  0  0  0  0  0  0  0  0
    1.2990    3.3481    0.0000 C   0  0  0  0  0  0  0  0  0  0  0  0
    0.2570    4.4270    0.0000 O   0  0  0  0  0  0  0  0  0  0  0  0
    2.0490   -0.5490    0.0000 C   0  0  0  0  0  0  0  0  0  0  0  0
    3.5490   -0.5490    0.0000 C   0  0  0  0  0  0  0  0  0  0  0  0
    4.2990   -1.8481    0.0000 C   0  0  0  0  0  0  0  0  0  0  0  0
    5.7990   -1.8481    0.0000 N   0  0  0  0  0  0  0  0  0  0  0  0
    6.5490   -3.1471    0.0000 C   0  0  0  0  0  0  0  0  0  0  0  0
    8.0490   -3.1471    0.0000 C   0  0  0  0  0  0  0  0  0  0  0  0
    8.7990   -1.8481    0.0000 O   0  0  0  0  0  0  0  0  0  0  0  0
    8.7990   -4.4462    0.0000 C   0  0  0  0  0  0  0  0  0  0  0  0
   10.2990   -4.4462    0.0000 S   0  0  0  0  0  0  0  0  0  0  0  0
   10.2990   -5.9462    0.0000 O   0  0  0  0  0  0  0  0  0  0  0  0
   10.2990   -2.9462    0.0000 O   0  0  0  0  0  0  0  0  0  0  0  0
   11.7990   -4.4462    0.0000 O   0  0  0  0  0  0  0  0  0  0  0  0
    6.5490   -0.5490    0.0000 S   0  0  0  0  0  0  0  0  0  0  0  0
    5.8152   -0.2376    0.0000 O   0  0  0  0  0  0  0  0  0  0  0  0
    7.8481   -1.2990    0.0000 O   0  0  0  0  0  0  0  0  0  0  0  0
    7.2990    0.7500    0.0000 C   0  0  0  0  0  0  0  0  0  0  0  0
    8.5981   -0.0000    0.0000 F   0  0  0  0  0  0  0  0  0  0  0  0
    8.0490    2.0490    0.0000 F   0  0  0  0  0  0  0  0  0  0  0  0
    6.0000    1.5000    0.0000 C   0  0  0  0  0  0  0  0  0  0  0  0
    6.7500    2.7990    0.0000 F   0  0  0  0  0  0  0  0  0  0  0  0
    5.4669    0.7926    0.0000 F   0  0  0  0  0  0  0  0  0  0  0  0
    4.7010    2.2500    0.0000 C   0  0  0  0  0  0  0  0  0  0  0  0
    5.4510    3.5490    0.0000 F   0  0  0  0  0  0  0  0  0  0  0  0
    3.9510    0.9510    0.0000 F   0  0  0  0  0  0  0  0  0  0  0  0
    3.4019    3.0000    0.0000 C   0  0  0  0  0  0  0  0  0  0  0  0
    2.8159    1.6192    0.0000 F   0  0  0  0  0  0  0  0  0  0  0  0
    4.1519    4.2990    0.0000 F   0  0  0  0  0  0  0  0  0  0  0  0
    2.1029    3.7500    0.0000 C   0  0  0  0  0  0  0  0  0  0  0  0
    1.3529    2.4510    0.0000 F   0  0  0  0  0  0  0  0  0  0  0  0
    2.8529    5.0490    0.0000 F   0  0  0  0  0  0  0  0  0  0  0  0
    0.8038    4.5000    0.0000 C   0  0  0  0  0  0  0  0  0  0  0  0
   -0.4952    5.2500    0.0000 F   0  0  0  0  0  0  0  0  0  0  0  0
    0.0538    3.2010    0.0000 F   0  0  0  0  0  0  0  0  0  0  0  0
    1.5538    5.7990    0.0000 F   0  0  0  0  0  0  0  0  0  0  0  0
   12.7990    0.0000    0.0000 Cl  0  0  0  0  0  0  0  0  0  0  0  0
    0.0000    6.7990    0.0000 Na  0  0  0  0  0 15  0  0  0  0  0  0
  1  2  1  0
  2  3  1  0
  2  4  1  0
  4  5  1  0
  5  6  1  0
  2  7  1  0
  7  8  1  0
  8  9  1  0
  9 10  1  0
 10 11  1  0
 11 12  1  0
 12 13  1  0
 12 14  1  0
 14 15  1  0
 15 16  2  0
 15 17  2  0
 15 18  1  0
 10 19  1  0
 19 20  2  0
 19 21  2  0
 19 22  1  0
 22 23  1  0
 22 24  1  0
 22 25  1  0
 25 26  1  0
 25 27  1  0
 25 28  1  0
 28 29  1  0
 28 30  1  0
 28 31  1  0
 31 32  1  0
 31 33  1  0
 31 34  1  0
 34 35  1  0
 34 36  1  0
 34 37  1  0
 37 38  1  0
 37 39  1  0
 37 40  1  0
M  CHG  4   2   1  18  -1  41  -1  42   1
M  END
$$$$

     RDKit          2D

 47 46  0  0  0  0  0  0  0  0999 V2000
    0.0000    0.0000    0.0000 C   0  0  0  0  0  0  0  0  0  0  0  0
    1.2990    0.7500    0.0000 C   0  0  0  0  0  0  0  0  0  0  0  0
    2.5981   -0.0000    0.0000 C   0  0  0  0  0  0  0  0  0  0  0  0
    1.2990    2.2500    0.0000 O   0  0  0  0  0  0  0  0  0  0  0  0
    2.5981    3.0000    0.0000 C   0  0  0  0  0  0  0  0  0  0  0  0
    3.8971    2.2500    0.0000 O   0  0  0  0  0  0  0  0  0  0  0  0
    2.5981    4.5000    0.0000 C   0  0  0  0  0  0  0  0  0  0  0  0
    3.8971    5.2500    0.0000 N   0  0  0  0  0  0  0  0  0  0  0  0
    3.1471    6.5490    0.0000 C   0  0  0  0  0  0  0  0  0  0  0  0
    4.6471    3.9510    0.0000 C   0  0  0  0  0  0  0  0  0  0  0  0
    5.1962    6.0000    0.0000 C   0  0  0  0  0  0  0  0  0  0  0  0
    6.4952    5.2500    0.0000 C   0  0  0  0  0  0  0  0  0  0  0  0
    7.7942    6.0000    0.0000 C   0  0  0  0  0  0  0  0  0  0  0  0
    9.0933    5.2500    0.0000 N   0  0  0  0  0  0  0  0  0  0  0  0
   10.3923    6.0000    0.0000 C   0  0  0  0  0  0  0  0  0  0  0  0
   10.3923    7.5000    0.0000 O   0  0  0  0  0  0  0  0  0  0  0  0
   11.6913    5.2500    0.0000 C   0  0  0  0  0  0  0  0  0  0  0  0
   12.4413    6.5490    0.0000 F   0  0  0  0  0  0  0  0  0  0  0  0
   10.9413    3.9510    0.0000 F   0  0  0  0  0  0  0  0  0  0  0  0
   12.9904    4.5000    0.0000 C   0  0  0  0  0  0  0  0  0  0  0  0
   12.2404    3.2010    0.0000 F   0  0  0  0  0  0  0  0  0  0  0  0
   13.7404    5.7990    0.0000 F   0  0  0  0  0  0  0  0  0  0  0  0
   14.2894    3.7500    0.0000 C   0  0  0  0  0  0  0  0  0  0  0  0
   15.0394    5.0490    0.0000 F   0  0  0  0  0  0  0  0  0  0  0  0
   13.5394    2.4510    0.0000 F   0  0  0  0  0  0  0  0  0  0  0  0
   15.5885    3.0000    0.0000 C   0  0  0  0  0  0  0  0  0  0  0  0
   14.8385    1.7010    0.0000 F   0  0  0  0  0  0  0  0  0  0  0  0
   16.3385    4.2990    0.0000 F   0  0  0  0  0  0  0  0  0  0  0  0
   16.8875    2.2500    0.0000 C   0  0  0  0  0  0  0  0  0  0  0  0
   17.6375    3.5490    0.0000 F   0  0  0  0  0  0  0  0  0  0  0  0
   16.1375    0.9510    0.0000 F   0  0  0  0  0  0  0  0  0  0  0  0
   18.1865    1.5000    0.0000 C   0  0  0  0  0  0  0  0  0  0  0  0
   17.4365    0.2010    0.0000 F   0  0  0  0  0  0  0  0  0  0  0  0
   18.9365    2.7990    0.0000 F   0  0  0  0  0  0  0  0  0  0  0  0
   19.4856    0.7500    0.0000 C   0  0  0  0  0  0  0  0  0  0  0  0
   20.2356    2.0490    0.0000 F   0  0  0  0  0  0  0  0  0  0  0  0
   18.7356   -0.5490    0.0000 F   0  0  0  0  0  0  0  0  0  0  0  0
   20.7846    0.0000    0.0000 C   0  0  0  0  0  0  0  0  0  0  0  0
   20.0346   -1.2990    0.0000 F   0  0  0  0  0  0  0  0  0  0  0  0
   21.5346    1.2990    0.0000 F   0  0  0  0  0  0  0  0  0  0  0  0
   22.0836   -0.7500    0.0000 C   0  0  0  0  0  0  0  0  0  0  0  0
   22.8336    0.5490    0.0000 F   0  0  0  0  0  0  0  0  0  0  0  0
   21.3336   -2.0490    0.0000 F   0  0  0  0  0  0  0  0  0  0  0  0
   23.3827   -1.5000    0.0000 C   0  0  0  0  0  0  0  0  0  0  0  0
   24.6817   -2.2500    0.0000 F   0  0  0  0  0  0  0  0  0  0  0  0
   22.6327   -2.7990    0.0000 F   0  0  0  0  0  0  0  0  0  0  0  0
   24.1327   -0.2010    0.0000 F   0  0  0  0  0  0  0  0  0  0  0  0
  1  2  1  0
  2  3  1  0
  2  4  1  0
  4  5  1  0
  5  6  2  0
  5  7  1  0
  7  8  1  0
  8  9  1  0
  8 10  1  0
  8 11  1  0
 11 12  1  0
 12 13  1  0
 13 14  1  0
 14 15  1  0
 15 16  2  0
 15 17  1  0
 17 18  1  0
 17 19  1  0
 17 20  1  0
 20 21  1  0
 20 22  1  0
 20 23  1  0
 23 24  1  0
 23 25  1  0
 23 26  1  0
 26 27  1  0
 26 28  1  0
 26 29  1  0
 29 30  1  0
 29 31  1  0
 29 32  1  0
 32 33  1  0
 32 34  1  0
 32 35  1  0
 35 36  1  0
 35 37  1  0
 35 38  1  0
 38 39  1  0
 38 40  1  0
 38 41  1  0
 41 42  1  0
 41 43  1  0
 41 44  1  0
 44 45  1  0
 44 46  1  0
 44 47  1  0
M  CHG  1   8   1
M  END
$$$$

     RDKit          2D

 31 29  0  0  0  0  0  0  0  0999 V2000
    0.0000    0.0000    0.0000 C   0  0  0  0  0  0  0  0  0  0  0  0
    1.2990    0.7500    0.0000 C   0  0  0  0  0  0  0  0  0  0  0  0
    2.5981   -0.0000    0.0000 C   0  0  0  0  0  0  0  0  0  0  0  0
    3.8971    0.7500    0.0000 C   0  0  0  0  0  0  0  0  0  0  0  0
    5.1962   -0.0000    0.0000 C   0  0  0  0  0  0  0  0  0  0  0  0
    6.4952    0.7500    0.0000 C   0  0  0  0  0  0  0  0  0  0  0  0
    7.7942   -0.0000    0.0000 C   0  0  0  0  0  0  0  0  0  0  0  0
    9.0933    0.7500    0.0000 C   0  0  0  0  0  0  0  0  0  0  0  0
   10.3923   -0.0000    0.0000 N   0  0  0  0  0  0  0  0  0  0  0  0
    9.6423   -1.2990    0.0000 C   0  0  0  0  0  0  0  0  0  0  0  0
   11.1423    1.2990    0.0000 C   0  0  0  0  0  0  0  0  0  0  0  0
   11.6913   -0.7500    0.0000 C   0  0  0  0  0  0  0  0  0  0  0  0
   11.6913   -2.2500    0.0000 C   0  0  0  0  0  0  0  0  0  0  0  0
   12.9904   -3.0000    0.0000 O   0  0  0  0  0  0  0  0  0  0  0  0
   -1.5000    3.7990    0.0000 O   0  0  0  0  0  0  0  0  0  0  0  0
    0.0000    3.7990    0.0000 S   0  0  0  0  0  0  0  0  0  0  0  0
    0.7912    3.7019    0.0000 O   0  0  0  0  0  0  0  0  0  0  0  0
   -0.0000    2.2990    0.0000 O   0  0  0  0  0  0  0  0  0  0  0  0
    0.0000    5.2990    0.0000 C   0  0  0  0  0  0  0  0  0  0  0  0
   -1.5000    5.2990    0.0000 F   0  0  0  0  0  0  0  0  0  0  0  0
    0.0000    6.7990    0.0000 F   0  0  0  0  0  0  0  0  0  0  0  0
    1.5000    5.2990    0.0000 C   0  0  0  0  0  0  0  0  0  0  0  0
    1.5000    6.7990    0.0000 F   0  0  0  0  0  0  0  0  0  0  0  0
    1.6080    4.4199    0.0000 F   0  0  0  0  0  0  0  0  0  0  0  0
    3.0000    5.2990    0.0000 C   0  0  0  0  0  0  0  0  0  0  0  0
    3.0000    6.7990    0.0000 F   0  0  0  0  0  0  0  0  0  0  0  0
    3.0000    3.7990    0.0000 F   0  0  0  0  0  0  0  0  0  0  0  0
    4.5000    5.2990    0.0000 C   0  0  0  0  0  0  0  0  0  0  0  0
    6.0000    5.2990    0.0000 F   0  0  0  0  0  0  0  0  0  0  0  0
    4.5000    3.7990    0.0000 F   0  0  0  0  0  0  0  0  0  0  0  0
    4.5000    6.7990    0.0000 F   0  0  0  0  0  0  0  0  0  0  0  0
  1  2  1  0
  2  3  1  0
  3  4  1  0
  4  5  1  0
  5  6  1  0
  6  7  1  0
  7  8  1  0
  8  9  1  0
  9 10  1  0
  9 11  1  0
  9 12  1  0
 12 13  1  0
 13 14  1  0
 15 16  2  0
 16 17  2  0
 16 18  1  0
 16 19  1  0
 19 20  1  0
 19 21  1  0
 19 22  1  0
 22 23  1  0
 22 24  1  0
 22 25  1  0
 25 26  1  0
 25 27  1  0
 25 28  1  0
 28 29  1  0
 28 30  1  0
 28 31  1  0
M  CHG  2   9   1  18  -1
M  END
$$$$

     RDKit          2D

 10  9  0  0  0  0  0  0  0  0999 V2000
    1.1979   -2.4028    0.0000 O   0  0  0  0  0  0  0  0  0  0  0  0
   -0.0000   -1.5000    0.0000 S   0  0  0  0  0  0  0  0  0  0  0  0
   -1.2990   -2.2500    0.0000 O   0  0  0  0  0  0  0  0  0  0  0  0
    0.0000    0.0000    0.0000 C   0  0  0  0  0  0  0  0  0  0  0  0
   -1.5000    0.0000    0.0000 F   0  0  0  0  0  0  0  0  0  0  0  0
    0.0000    1.5000    0.0000 F   0  0  0  0  0  0  0  0  0  0  0  0
    1.5000    0.0000    0.0000 C   0  0  0  0  0  0  0  0  0  0  0  0
    3.0000    0.0000    0.0000 F   0  0  0  0  0  0  0  0  0  0  0  0
    1.5000    1.5000    0.0000 F   0  0  0  0  0  0  0  0  0  0  0  0
    1.6828   -1.4888    0.0000 F   0  0  0  0  0  0  0  0  0  0  0  0
  1  2  2  0
  2  3  1  0
  2  4  1  0
  4  5  1  0
  4  6  1  0
  4  7  1  0
  7  8  1  0
  7  9  1  0
  7 10  1  0
M  END
$$$$

     RDKit          2D

 51 50  0  0  0  0  0  0  0  0999 V2000
    0.0000    0.0000    0.0000 C   0  0  0  0  0  0  0  0  0  0  0  0
    1.2990    0.7500    0.0000 N   0  0  0  0  0  0  0  0  0  0  0  0
    2.5981    1.5000    0.0000 C   0  0  0  0  0  0  0  0  0  0  0  0
    2.0490   -0.5490    0.0000 C   0  0  0  0  0  0  0  0  0  0  0  0
    3.5490   -0.5490    0.0000 C   0  0  0  0  0  0  0  0  0  0  0  0
    4.2990   -1.8481    0.0000 C   0  0  0  0  0  0  0  0  0  0  0  0
    3.5490   -3.1471    0.0000 F   0  0  0  0  0  0  0  0  0  0  0  0
    5.7990   -1.8481    0.0000 C   0  0  0  0  0  0  0  0  0  0  0  0
    5.7990   -3.3481    0.0000 F   0  0  0  0  0  0  0  0  0  0  0  0
    5.7990   -0.3481    0.0000 F   0  0  0  0  0  0  0  0  0  0  0  0
    7.2990   -1.8481    0.0000 C   0  0  0  0  0  0  0  0  0  0  0  0
    7.2990   -0.3481    0.0000 F   0  0  0  0  0  0  0  0  0  0  0  0
    7.2990   -3.3481    0.0000 F   0  0  0  0  0  0  0  0  0  0  0  0
    8.7990   -1.8481    0.0000 C   0  0  0  0  0  0  0  0  0  0  0  0
    8.7990   -3.3481    0.0000 F   0  0  0  0  0  0  0  0  0  0  0  0
    8.7990   -0.3481    0.0000 F   0  0  0  0  0  0  0  0  0  0  0  0
   10.2990   -1.8481    0.0000 C   0  0  0  0  0  0  0  0  0  0  0  0
   10.2990   -0.3481    0.0000 F   0  0  0  0  0  0  0  0  0  0  0  0
   10.2990   -3.3481    0.0000 F   0  0  0  0  0  0  0  0  0  0  0  0
   11.7990   -1.8481    0.0000 C   0  0  0  0  0  0  0  0  0  0  0  0
   11.7990   -3.3481    0.0000 F   0  0  0  0  0  0  0  0  0  0  0  0
   11.7990   -0.3481    0.0000 F   0  0  0  0  0  0  0  0  0  0  0  0
   13.2990   -1.8481    0.0000 C   0  0  0  0  0  0  0  0  0  0  0  0
   13.2990   -0.3481    0.0000 F   0  0  0  0  0  0  0  0  0  0  0  0
   13.2990   -3.3481    0.0000 F   0  0  0  0  0  0  0  0  0  0  0  0
   14.7990   -1.8481    0.0000 C   0  0  0  0  0  0  0  0  0  0  0  0
   14.7990   -3.3481    0.0000 F   0  0  0  0  0  0  0  0  0  0  0  0
   14.7990   -0.3481    0.0000 F   0  0  0  0  0  0  0  0  0  0  0  0
   16.2990   -1.8481    0.0000 C   0  0  0  0  0  0  0  0  0  0  0  0
   16.2990   -0.3481    0.0000 F   0  0  0  0  0  0  0  0  0  0  0  0
   16.2990   -3.3481    0.0000 F   0  0  0  0  0  0  0  0  0  0  0  0
   17.7990   -1.8481    0.0000 C   0  0  0  0  0  0  0  0  0  0  0  0
   17.7990   -3.3481    0.0000 F   0  0  0  0  0  0  0  0  0  0  0  0
   17.7990   -0.3481    0.0000 F   0  0  0  0  0  0  0  0  0  0  0  0
   19.2990   -1.8481    0.0000 C   0  0  0  0  0  0  0  0  0  0  0  0
   19.2990   -0.3481    0.0000 F   0  0  0  0  0  0  0  0  0  0  0  0
   19.2990   -3.3481    0.0000 F   0  0  0  0  0  0  0  0  0  0  0  0
   20.7990   -1.8481    0.0000 C   0  0  0  0  0  0  0  0  0  0  0  0
   20.7990   -3.3481    0.0000 F   0  0  0  0  0  0  0  0  0  0  0  0
   20.7990   -0.3481    0.0000 F   0  0  0  0  0  0  0  0  0  0  0  0
   22.2990   -1.8481    0.0000 C   0  0  0  0  0  0  0  0  0  0  0  0
   22.2990   -0.3481    0.0000 F   0  0  0  0  0  0  0  0  0  0  0  0
   22.2990   -3.3481    0.0000 F   0  0  0  0  0  0  0  0  0  0  0  0
   23.7990   -1.8481    0.0000 C   0  0  0  0  0  0  0  0  0  0  0  0
   25.2990   -1.8481    0.0000 F   0  0  0  0  0  0  0  0  0  0  0  0
   23.7990   -3.3481    0.0000 F   0  0  0  0  0  0  0  0  0  0  0  0
   23.7990   -0.3481    0.0000 F   0  0  0  0  0  0  0  0  0  0  0  0
    0.5490    2.0490    0.0000 C   0  0  0  0  0  0  0  0  0  0  0  0
    1.2990    3.3481    0.0000 C   0  0  0  0  0  0  0  0  0  0  0  0
    2.7990    3.3481    0.0000 O   0  0  0  0  0  0  0  0  0  0  0  0
    0.5490    4.6471    0.0000 O   0  0  0  0  0  0  0  0  0  0  0  0
  1  2  1  0
  2  3  1  0
  2  4  1  0
  4  5  1  0
  5  6  1  0
  6  7  1  0
  6  8  1  0
  8  9  1  0
  8 10  1  0
  8 11  1  0
 11 12  1  0
 11 13  1  0
 11 14  1  0
 14 15  1  0
 14 16  1  0
 14 17  1  0
 17 18  1  0
 17 19  1  0
 17 20  1  0
 20 21  1  0
 20 22  1  0
 20 23  1  0
 23 24  1  0
 23 25  1  0
 23 26  1  0
 26 27  1  0
 26 28  1  0
 26 29  1  0
 29 30  1  0
 29 31  1  0
 29 32  1  0
 32 33  1  0
 32 34  1  0
 32 35  1  0
 35 36  1  0
 35 37  1  0
 35 38  1  0
 38 39  1  0
 38 40  1  0
 38 41  1  0
 41 42  1  0
 41 43  1  0
 41 44  1  0
 44 45  1  0
 44 46  1  0
 44 47  1  0
  2 48  1  0
 48 49  1  0
 49 50  2  0
 49 51  1  0
M  CHG  2   2   1  51  -1
M  END
$$$$

     RDKit          2D

 20 19  0  0  0  0  0  0  0  0999 V2000
    0.0000    0.0000    0.0000 C   0  0  0  0  0  0  0  0  0  0  0  0
    1.2990    0.7500    0.0000 N   0  0  0  0  0  0  0  0  0  0  0  0
    2.5981    0.0000    0.0000 C   0  0  0  0  0  0  0  0  0  0  0  0
    1.2990    2.2500    0.0000 C   0  0  0  0  0  0  0  0  0  0  0  0
    2.5981    3.0000    0.0000 C   0  0  0  0  0  0  0  0  0  0  0  0
    2.5981    4.5000    0.0000 C   0  0  0  0  0  0  0  0  0  0  0  0
    3.8971    5.2500    0.0000 N   0  0  0  0  0  0  0  0  0  0  0  0
    3.8971    6.7500    0.0000 S   0  0  0  0  0  0  0  0  0  0  0  0
    2.3971    6.7500    0.0000 O   0  0  0  0  0  0  0  0  0  0  0  0
    4.6883    6.6528    0.0000 O   0  0  0  0  0  0  0  0  0  0  0  0
    3.8971    8.2500    0.0000 C   0  0  0  0  0  0  0  0  0  0  0  0
    2.3971    8.2500    0.0000 F   0  0  0  0  0  0  0  0  0  0  0  0
    3.8971    9.7500    0.0000 F   0  0  0  0  0  0  0  0  0  0  0  0
    5.3971    8.2500    0.0000 C   0  0  0  0  0  0  0  0  0  0  0  0
    5.5051    7.3709    0.0000 F   0  0  0  0  0  0  0  0  0  0  0  0
    5.3971    9.7500    0.0000 F   0  0  0  0  0  0  0  0  0  0  0  0
    6.8971    8.2500    0.0000 C   0  0  0  0  0  0  0  0  0  0  0  0
    8.3971    8.2500    0.0000 F   0  0  0  0  0  0  0  0  0  0  0  0
    6.8971    9.7500    0.0000 F   0  0  0  0  0  0  0  0  0  0  0  0
    6.8971    6.7500    0.0000 F   0  0  0  0  0  0  0  0  0  0  0  0
  1  2  1  0
  2  3  1  0
  2  4  1  0
  4  5  1  0
  5  6  1  0
  6  7  1  0
  7  8  1  0
  8  9  2  0
  8 10  2  0
  8 11  1  0
 11 12  1  0
 11 13  1  0
 11 14  1  0
 14 15  1  0
 14 16  1  0
 14 17  1  0
 17 18  1  0
 17 19  1  0
 17 20  1  0
M  END
$$$$

     RDKit          2D

 14 12  0  0  0  0  0  0  0  0999 V2000
    1.1979   -2.4028    0.0000 O   0  0  0  0  0  0  0  0  0  0  0  0
    0.0000   -1.5000    0.0000 S   0  0  0  0  0  0  0  0  0  0  0  0
   -1.2990   -2.2500    0.0000 O   0  0  0  0  0  0  0  0  0  0  0  0
    0.0000    0.0000    0.0000 C   0  0  0  0  0  0  0  0  0  0  0  0
   -1.5000    0.0000    0.0000 F   0  0  0  0  0  0  0  0  0  0  0  0
    0.0000    1.5000    0.0000 F   0  0  0  0  0  0  0  0  0  0  0  0
    1.5000    0.0000    0.0000 C   0  0  0  0  0  0  0  0  0  0  0  0
    1.5000    1.5000    0.0000 F   0  0  0  0  0  0  0  0  0  0  0  0
    1.6828   -1.4888    0.0000 F   0  0  0  0  0  0  0  0  0  0  0  0
    3.0000    0.0000    0.0000 C   0  0  0  0  0  0  0  0  0  0  0  0
    4.5000    0.0000    0.0000 F   0  0  0  0  0  0  0  0  0  0  0  0
    3.0000    1.5000    0.0000 F   0  0  0  0  0  0  0  0  0  0  0  0
    3.0000   -1.5000    0.0000 F   0  0  0  0  0  0  0  0  0  0  0  0
    0.0000    2.5000    0.0000 Na  0  0  0  0  0 15  0  0  0  0  0  0
  1  2  2  0
  2  3  1  0
  2  4  1  0
  4  5  1  0
  4  6  1  0
  4  7  1  0
  7  8  1  0
  7  9  1  0
  7 10  1  0
 10 11  1  0
 10 12  1  0
 10 13  1  0
M  CHG  2   3  -1  14   1
M  END
$$$$

     RDKit          2D

 39 38  0  0  0  0  0  0  0  0999 V2000
    8.3971   -4.8481    0.0000 C   0  0  0  0  0  0  0  0  0  0  0  0
    8.3971   -3.3481    0.0000 C   0  0  0  0  0  0  0  0  0  0  0  0
    7.0981   -2.5981    0.0000 N   0  0  0  0  0  0  0  0  0  0  0  0
    5.7990   -1.8481    0.0000 C   0  0  0  0  0  0  0  0  0  0  0  0
    4.5000   -2.5981    0.0000 C   0  0  0  0  0  0  0  0  0  0  0  0
    7.8481   -1.2990    0.0000 C   0  0  0  0  0  0  0  0  0  0  0  0
    7.0981    0.0000    0.0000 C   0  0  0  0  0  0  0  0  0  0  0  0
    6.3481   -3.8971    0.0000 C   0  0  0  0  0  0  0  0  0  0  0  0
    4.8481   -3.8971    0.0000 C   0  0  0  0  0  0  0  0  0  0  0  0
    4.0981   -5.1962    0.0000 C   0  0  0  0  0  0  0  0  0  0  0  0
    2.5981   -5.1962    0.0000 N   0  0  0  0  0  0  0  0  0  0  0  0
    1.8481   -6.4952    0.0000 S   0  0  0  0  0  0  0  0  0  0  0  0
    3.1471   -7.2452    0.0000 O   0  0  0  0  0  0  0  0  0  0  0  0
    1.2114   -6.0154    0.0000 O   0  0  0  0  0  0  0  0  0  0  0  0
    1.0981   -7.7942    0.0000 C   0  0  0  0  0  0  0  0  0  0  0  0
    2.3971   -8.5442    0.0000 F   0  0  0  0  0  0  0  0  0  0  0  0
    0.3481   -9.0933    0.0000 F   0  0  0  0  0  0  0  0  0  0  0  0
   -0.2010   -7.0442    0.0000 C   0  0  0  0  0  0  0  0  0  0  0  0
    0.1451   -6.2289    0.0000 F   0  0  0  0  0  0  0  0  0  0  0  0
   -0.9510   -8.3433    0.0000 F   0  0  0  0  0  0  0  0  0  0  0  0
   -1.5000   -6.2942    0.0000 C   0  0  0  0  0  0  0  0  0  0  0  0
   -2.2500   -7.5933    0.0000 F   0  0  0  0  0  0  0  0  0  0  0  0
   -0.7500   -4.9952    0.0000 F   0  0  0  0  0  0  0  0  0  0  0  0
   -2.7990   -5.5442    0.0000 C   0  0  0  0  0  0  0  0  0  0  0  0
   -2.0490   -4.2452    0.0000 F   0  0  0  0  0  0  0  0  0  0  0  0
   -3.5490   -6.8433    0.0000 F   0  0  0  0  0  0  0  0  0  0  0  0
   -4.0981   -4.7942    0.0000 C   0  0  0  0  0  0  0  0  0  0  0  0
   -3.3481   -3.4952    0.0000 F   0  0  0  0  0  0  0  0  0  0  0  0
   -4.8481   -6.0933    0.0000 F   0  0  0  0  0  0  0  0  0  0  0  0
   -5.3971   -4.0442    0.0000 C   0  0  0  0  0  0  0  0  0  0  0  0
   -6.1471   -5.3433    0.0000 F   0  0  0  0  0  0  0  0  0  0  0  0
   -4.6471   -2.7452    0.0000 F   0  0  0  0  0  0  0  0  0  0  0  0
   -6.6962   -3.2942    0.0000 C   0  0  0  0  0  0  0  0  0  0  0  0
   -5.9462   -1.9952    0.0000 F   0  0  0  0  0  0  0  0  0  0  0  0
   -7.4462   -4.5933    0.0000 F   0  0  0  0  0  0  0  0  0  0  0  0
   -7.9952   -2.5442    0.0000 C   0  0  0  0  0  0  0  0  0  0  0  0
   -9.2942   -1.7942    0.0000 F   0  0  0  0  0  0  0  0  0  0  0  0
   -8.7452   -3.8433    0.0000 F   0  0  0  0  0  0  0  0  0  0  0  0
   -7.2452   -1.2452    0.0000 F   0  0  0  0  0  0  0  0  0  0  0  0
  1  2  1  0
  2  3  1  0
  3  4  1  0
  4  5  1  0
  3  6  1  0
  6  7  1  0
  3  8  1  0
  8  9  1  0
  9 10  1  0
 10 11  1  0
 11 12  1  0
 12 13  2  0
 12 14  2  0
 12 15  1  0
 15 16  1  0
 15 17  1  0
 15 18  1  0
 18 19  1  0
 18 20  1  0
 18 21  1  0
 21 22  1  0
 21 23  1  0
 21 24  1  0
 24 25  1  0
 24 26  1  0
 24 27  1  0
 27 28  1  0
 27 29  1  0
 27 30  1  0
 30 31  1  0
 30 32  1  0
 30 33  1  0
 33 34  1  0
 33 35  1  0
 33 36  1  0
 36 37  1  0
 36 38  1  0
 36 39  1  0
M  CHG  1   3   1
M  END
$$$$

     RDKit          2D

 17 16  0  0  0  0  0  0  0  0999 V2000
    0.0000    0.0000    0.0000 C   0  0  0  0  0  0  0  0  0  0  0  0
    1.2990    0.7500    0.0000 C   0  0  0  0  0  0  0  0  0  0  0  0
    2.0490   -0.5490    0.0000 F   0  0  0  0  0  0  0  0  0  0  0  0
    0.5490    2.0490    0.0000 F   0  0  0  0  0  0  0  0  0  0  0  0
    2.5981    1.5000    0.0000 C   0  0  0  0  0  0  0  0  0  0  0  0
    1.8481    2.7990    0.0000 F   0  0  0  0  0  0  0  0  0  0  0  0
    3.3481    0.2010    0.0000 F   0  0  0  0  0  0  0  0  0  0  0  0
    3.8971    2.2500    0.0000 C   0  0  0  0  0  0  0  0  0  0  0  0
    4.6471    0.9510    0.0000 F   0  0  0  0  0  0  0  0  0  0  0  0
    3.1471    3.5490    0.0000 F   0  0  0  0  0  0  0  0  0  0  0  0
    5.1962    3.0000    0.0000 C   0  0  0  0  0  0  0  0  0  0  0  0
    4.4462    4.2990    0.0000 F   0  0  0  0  0  0  0  0  0  0  0  0
    5.9462    1.7010    0.0000 F   0  0  0  0  0  0  0  0  0  0  0  0
    6.4952    3.7500    0.0000 C   0  0  0  0  0  0  0  0  0  0  0  0
    7.7942    4.5000    0.0000 F   0  0  0  0  0  0  0  0  0  0  0  0
    7.2452    2.4510    0.0000 F   0  0  0  0  0  0  0  0  0  0  0  0
    5.7452    5.0490    0.0000 F   0  0  0  0  0  0  0  0  0  0  0  0
  1  2  1  0
  2  3  1  0
  2  4  1  0
  2  5  1  0
  5  6  1  0
  5  7  1  0
  5  8  1  0
  8  9  1  0
  8 10  1  0
  8 11  1  0
 11 12  1  0
 11 13  1  0
 11 14  1  0
 14 15  1  0
 14 16  1  0
 14 17  1  0
M  END
$$$$

     RDKit          2D

 26 25  0  0  0  0  0  0  0  0999 V2000
    0.0000    0.0000    0.0000 C   0  0  0  0  0  0  0  0  0  0  0  0
    1.2990    0.7500    0.0000 C   0  0  0  0  0  0  0  0  0  0  0  0
    2.0490   -0.5490    0.0000 F   0  0  0  0  0  0  0  0  0  0  0  0
    0.5490    2.0490    0.0000 F   0  0  0  0  0  0  0  0  0  0  0  0
    2.5981    1.5000    0.0000 C   0  0  0  0  0  0  0  0  0  0  0  0
    1.8481    2.7990    0.0000 F   0  0  0  0  0  0  0  0  0  0  0  0
    3.3481    0.2010    0.0000 F   0  0  0  0  0  0  0  0  0  0  0  0
    3.8971    2.2500    0.0000 C   0  0  0  0  0  0  0  0  0  0  0  0
    4.6471    0.9510    0.0000 F   0  0  0  0  0  0  0  0  0  0  0  0
    3.1471    3.5490    0.0000 F   0  0  0  0  0  0  0  0  0  0  0  0
    5.1962    3.0000    0.0000 C   0  0  0  0  0  0  0  0  0  0  0  0
    4.4462    4.2990    0.0000 F   0  0  0  0  0  0  0  0  0  0  0  0
    5.9462    1.7010    0.0000 F   0  0  0  0  0  0  0  0  0  0  0  0
    6.4952    3.7500    0.0000 C   0  0  0  0  0  0  0  0  0  0  0  0
    7.2452    2.4510    0.0000 F   0  0  0  0  0  0  0  0  0  0  0  0
    5.7452    5.0490    0.0000 F   0  0  0  0  0  0  0  0  0  0  0  0
    7.7942    4.5000    0.0000 C   0  0  0  0  0  0  0  0  0  0  0  0
    7.0442    5.7990    0.0000 F   0  0  0  0  0  0  0  0  0  0  0  0
    8.5442    3.2010    0.0000 F   0  0  0  0  0  0  0  0  0  0  0  0
    9.0933    5.2500    0.0000 C   0  0  0  0  0  0  0  0  0  0  0  0
    9.8433    3.9510    0.0000 F   0  0  0  0  0  0  0  0  0  0  0  0
    8.3433    6.5490    0.0000 F   0  0  0  0  0  0  0  0  0  0  0  0
   10.3923    6.0000    0.0000 C   0  0  0  0  0  0  0  0  0  0  0  0
   11.6913    6.7500    0.0000 F   0  0  0  0  0  0  0  0  0  0  0  0
    9.6423    7.2990    0.0000 F   0  0  0  0  0  0  0  0  0  0  0  0
   11.1423    4.7010    0.0000 F   0  0  0  0  0  0  0  0  0  0  0  0
  1  2  1  0
  2  3  1  0
  2  4  1  0
  2  5  1  0
  5  6  1  0
  5  7  1  0
  5  8  1  0
  8  9  1  0
  8 10  1  0
  8 11  1  0
 11 12  1  0
 11 13  1  0
 11 14  1  0
 14 15  1  0
 14 16  1  0
 14 17  1  0
 17 18  1  0
 17 19  1  0
 17 20  1  0
 20 21  1  0
 20 22  1  0
 20 23  1  0
 23 24  1  0
 23 25  1  0
 23 26  1  0
M  END
$$$$

     RDKit          2D

 18 17  0  0  0  0  0  0  0  0999 V2000
   -3.3481    1.2990    0.0000 O   0  0  0  0  0  0  0  0  0  0  0  0
   -2.5981    0.0000    0.0000 P   0  0  0  0  0  0  0  0  0  0  0  0
   -1.8481   -1.2990    0.0000 O   0  0  0  0  0  0  0  0  0  0  0  0
   -3.8971   -0.7500    0.0000 O   0  0  0  0  0  0  0  0  0  0  0  0
   -1.2990    0.7500    0.0000 O   0  0  0  0  0  0  0  0  0  0  0  0
    0.0000    0.0000    0.0000 C   0  0  0  0  0  0  0  0  0  0  0  0
    1.2990    0.7500    0.0000 C   0  0  0  0  0  0  0  0  0  0  0  0
    2.0490   -0.5490    0.0000 F   0  0  0  0  0  0  0  0  0  0  0  0
    0.5490    2.0490    0.0000 F   0  0  0  0  0  0  0  0  0  0  0  0
    2.5981    1.5000    0.0000 C   0  0  0  0  0  0  0  0  0  0  0  0
    1.8481    2.7990    0.0000 F   0  0  0  0  0  0  0  0  0  0  0  0
    3.3481    0.2010    0.0000 F   0  0  0  0  0  0  0  0  0  0  0  0
    3.8971    2.2500    0.0000 C   0  0  0  0  0  0  0  0  0  0  0  0
    3.1471    3.5490    0.0000 F   0  0  0  0  0  0  0  0  0  0  0  0
    4.6471    0.9510    0.0000 F   0  0  0  0  0  0  0  0  0  0  0  0
    5.1962    3.0000    0.0000 C   0  0  0  0  0  0  0  0  0  0  0  0
    5.1962    4.5000    0.0000 F   0  0  0  0  0  0  0  0  0  0  0  0
    6.4952    2.2500    0.0000 F   0  0  0  0  0  0  0  0  0  0  0  0
  1  2  2  0
  2  3  1  0
  2  4  1  0
  2  5  1  0
  5  6  1  0
  6  7  1  0
  7  8  1  0
  7  9  1  0
  7 10  1  0
 10 11  1  0
 10 12  1  0
 10 13  1  0
 13 14  1  0
 13 15  1  0
 13 16  1  0
 16 17  1  0
 16 18  1  0
M  END
$$$$

     RDKit          2D

 71 70  0  0  0  0  0  0  0  0999 V2000
   -3.3481    1.2990    0.0000 O   0  0  0  0  0  0  0  0  0  0  0  0
   -2.5981    0.0000    0.0000 P   0  0  0  0  0  0  0  0  0  0  0  0
   -1.8481   -1.2990    0.0000 O   0  0  0  0  0  0  0  0  0  0  0  0
   -1.2990    0.7500    0.0000 O   0  0  0  0  0  0  0  0  0  0  0  0
    0.0000    0.0000    0.0000 C   0  0  0  0  0  0  0  0  0  0  0  0
    1.2990    0.7500    0.0000 C   0  0  0  0  0  0  0  0  0  0  0  0
    2.5981   -0.0000    0.0000 C   0  0  0  0  0  0  0  0  0  0  0  0
    3.3481    1.2990    0.0000 F   0  0  0  0  0  0  0  0  0  0  0  0
    1.8481   -1.2990    0.0000 F   0  0  0  0  0  0  0  0  0  0  0  0
    3.8971   -0.7500    0.0000 C   0  0  0  0  0  0  0  0  0  0  0  0
    3.1471   -2.0490    0.0000 F   0  0  0  0  0  0  0  0  0  0  0  0
    4.6471    0.5490    0.0000 F   0  0  0  0  0  0  0  0  0  0  0  0
    5.1962   -1.5000    0.0000 C   0  0  0  0  0  0  0  0  0  0  0  0
    5.9462   -0.2010    0.0000 F   0  0  0  0  0  0  0  0  0  0  0  0
    4.4462   -2.7990    0.0000 F   0  0  0  0  0  0  0  0  0  0  0  0
    6.4952   -2.2500    0.0000 C   0  0  0  0  0  0  0  0  0  0  0  0
    5.7452   -3.5490    0.0000 F   0  0  0  0  0  0  0  0  0  0  0  0
    7.2452   -0.9510    0.0000 F   0  0  0  0  0  0  0  0  0  0  0  0
    7.7942   -3.0000    0.0000 C   0  0  0  0  0  0  0  0  0  0  0  0
    8.5442   -1.7010    0.0000 F   0  0  0  0  0  0  0  0  0  0  0  0
    7.0442   -4.2990    0.0000 F   0  0  0  0  0  0  0  0  0  0  0  0
    9.0933   -3.7500    0.0000 C   0  0  0  0  0  0  0  0  0  0  0  0
    8.3433   -5.0490    0.0000 F   0  0  0  0  0  0  0  0  0  0  0  0
    9.8433   -2.4510    0.0000 F   0  0  0  0  0  0  0  0  0  0  0  0
   10.3923   -4.5000    0.0000 C   0  0  0  0  0  0  0  0  0  0  0  0
   11.1423   -3.2010    0.0000 F   0  0  0  0  0  0  0  0  0  0  0  0
    9.6423   -5.7990    0.0000 F   0  0  0  0  0  0  0  0  0  0  0  0
   11.6913   -5.2500    0.0000 C   0  0  0  0  0  0  0  0  0  0  0  0
   12.9904   -6.0000    0.0000 F   0  0  0  0  0  0  0  0  0  0  0  0
   10.9413   -6.5490    0.0000 F   0  0  0  0  0  0  0  0  0  0  0  0
   12.4413   -3.9510    0.0000 F   0  0  0  0  0  0  0  0  0  0  0  0
   -3.8971   -0.7500    0.0000 O   0  0  0  0  0  0  0  0  0  0  0  0
   -3.8971   -2.2500    0.0000 C   0  0  0  0  0  0  0  0  0  0  0  0
   -5.1962   -3.0000    0.0000 C   0  0  0  0  0  0  0  0  0  0  0  0
   -5.1962   -4.5000    0.0000 C   0  0  0  0  0  0  0  0  0  0  0  0
   -6.6962   -4.5000    0.0000 F   0  0  0  0  0  0  0  0  0  0  0  0
   -3.6962   -4.5000    0.0000 F   0  0  0  0  0  0  0  0  0  0  0  0
   -5.1962   -6.0000    0.0000 C   0  0  0  0  0  0  0  0  0  0  0  0
   -3.6962   -6.0000    0.0000 F   0  0  0  0  0  0  0  0  0  0  0  0
   -6.6962   -6.0000    0.0000 F   0  0  0  0  0  0  0  0  0  0  0  0
   -5.1962   -7.5000    0.0000 C   0  0  0  0  0  0  0  0  0  0  0  0
   -6.6962   -7.5000    0.0000 F   0  0  0  0  0  0  0  0  0  0  0  0
   -3.6962   -7.5000    0.0000 F   0  0  0  0  0  0  0  0  0  0  0  0
   -5.1962   -9.0000    0.0000 C   0  0  0  0  0  0  0  0  0  0  0  0
   -3.6962   -9.0000    0.0000 F   0  0  0  0  0  0  0  0  0  0  0  0
   -6.6962   -9.0000    0.0000 F   0  0  0  0  0  0  0  0  0  0  0  0
   -5.1962  -10.5000    0.0000 C   0  0  0  0  0  0  0  0  0  0  0  0
   -6.6962  -10.5000    0.0000 F   0  0  0  0  0  0  0  0  0  0  0  0
   -3.6962  -10.5000    0.0000 F   0  0  0  0  0  0  0  0  0  0  0  0
   -5.1962  -12.0000    0.0000 C   0  0  0  0  0  0  0  0  0  0  0  0
   -3.6962  -12.0000    0.0000 F   0  0  0  0  0  0  0  0  0  0  0  0
   -6.6962  -12.0000    0.0000 F   0  0  0  0  0  0  0  0  0  0  0  0
   -5.1962  -13.5000    0.0000 C   0  0  0  0  0  0  0  0  0  0  0  0
   -6.6962  -13.5000    0.0000 F   0  0  0  0  0  0  0  0  0  0  0  0
   -3.6962  -13.5000    0.0000 F   0  0  0  0  0  0  0  0  0  0  0  0
   -5.1962  -15.0000    0.0000 C   0  0  0  0  0  0  0  0  0  0  0  0
   -3.6962  -15.0000    0.0000 F   0  0  0  0  0  0  0  0  0  0  0  0
   -6.6962  -15.0000    0.0000 F   0  0  0  0  0  0  0  0  0  0  0  0
   -5.1962  -16.5000    0.0000 C   0  0  0  0  0  0  0  0  0  0  0  0
   -6.6962  -16.5000    0.0000 F   0  0  0  0  0  0  0  0  0  0  0  0
   -3.6962  -16.5000    0.0000 F   0  0  0  0  0  0  0  0  0  0  0  0
   -5.1962  -18.0000    0.0000 C   0  0  0  0  0  0  0  0  0  0  0  0
   -3.6962  -18.0000    0.0000 F   0  0  0  0  0  0  0  0  0  0  0  0
   -6.6962  -18.0000    0.0000 F   0  0  0  0  0  0  0  0  0  0  0  0
   -5.1962  -19.5000    0.0000 C   0  0  0  0  0  0  0  0  0  0  0  0
   -6.6962  -19.5000    0.0000 F   0  0  0  0  0  0  0  0  0  0  0  0
   -3.6962  -19.5000    0.0000 F   0  0  0  0  0  0  0  0  0  0  0  0
   -5.1962  -21.0000    0.0000 C   0  0  0  0  0  0  0  0  0  0  0  0
   -5.1962  -22.5000    0.0000 F   0  0  0  0  0  0  0  0  0  0  0  0
   -3.6962  -21.0000    0.0000 F   0  0  0  0  0  0  0  0  0  0  0  0
   -6.6962  -21.0000    0.0000 F   0  0  0  0  0  0  0  0  0  0  0  0
  1  2  2  0
  2  3  1  0
  2  4  1  0
  4  5  1  0
  5  6  1  0
  6  7  1  0
  7  8  1  0
  7  9  1  0
  7 10  1  0
 10 11  1  0
 10 12  1  0
 10 13  1  0
 13 14  1  0
 13 15  1  0
 13 16  1  0
 16 17  1  0
 16 18  1  0
 16 19  1  0
 19 20  1  0
 19 21  1  0
 19 22  1  0
 22 23  1  0
 22 24  1  0
 22 25  1  0
 25 26  1  0
 25 27  1  0
 25 28  1  0
 28 29  1  0
 28 30  1  0
 28 31  1  0
  2 32  1  0
 32 33  1  0
 33 34  1  0
 34 35  1  0
 35 36  1  0
 35 37  1  0
 35 38  1  0
 38 39  1  0
 38 40  1  0
 38 41  1  0
 41 42  1  0
 41 43  1  0
 41 44  1  0
 44 45  1  0
 44 46  1  0
 44 47  1  0
 47 48  1  0
 47 49  1  0
 47 50  1  0
 50 51  1  0
 50 52  1  0
 50 53  1  0
 53 54  1  0
 53 55  1  0
 53 56  1  0
 56 57  1  0
 56 58  1  0
 56 59  1  0
 59 60  1  0
 59 61  1  0
 59 62  1  0
 62 63  1  0
 62 64  1  0
 62 65  1  0
 65 66  1  0
 65 67  1  0
 65 68  1  0
 68 69  1  0
 68 70  1  0
 68 71  1  0
M  END
$$$$

     RDKit          2D

 35 33  0  0  0  0  0  0  0  0999 V2000
    0.0000    0.0000    0.0000 C   0  0  0  0  0  0  0  0  0  0  0  0
    1.2990    0.7500    0.0000 C   0  0  0  0  0  0  0  0  0  0  0  0
    2.5981   -0.0000    0.0000 N   0  0  0  0  0  0  0  0  0  0  0  0
    3.8971   -0.7500    0.0000 C   0  0  0  0  0  0  0  0  0  0  0  0
    3.8971   -2.2500    0.0000 C   0  0  0  0  0  0  0  0  0  0  0  0
    3.3481    1.2990    0.0000 C   0  0  0  0  0  0  0  0  0  0  0  0
    4.8481    1.2990    0.0000 C   0  0  0  0  0  0  0  0  0  0  0  0
    1.8481   -1.2990    0.0000 C   0  0  0  0  0  0  0  0  0  0  0  0
    2.5981   -2.5981    0.0000 C   0  0  0  0  0  0  0  0  0  0  0  0
   -1.5000    3.7990    0.0000 O   0  0  0  0  0  0  0  0  0  0  0  0
    0.0000    3.7990    0.0000 S   0  0  0  0  0  0  0  0  0  0  0  0
    0.7912    3.7019    0.0000 O   0  0  0  0  0  0  0  0  0  0  0  0
   -0.0000    2.2990    0.0000 O   0  0  0  0  0  0  0  0  0  0  0  0
    0.0000    5.2990    0.0000 C   0  0  0  0  0  0  0  0  0  0  0  0
   -1.5000    5.2990    0.0000 F   0  0  0  0  0  0  0  0  0  0  0  0
    0.0000    6.7990    0.0000 F   0  0  0  0  0  0  0  0  0  0  0  0
    1.5000    5.2990    0.0000 C   0  0  0  0  0  0  0  0  0  0  0  0
    1.5000    6.7990    0.0000 F   0  0  0  0  0  0  0  0  0  0  0  0
    1.6080    4.4199    0.0000 F   0  0  0  0  0  0  0  0  0  0  0  0
    3.0000    5.2990    0.0000 C   0  0  0  0  0  0  0  0  0  0  0  0
    3.0000    3.7990    0.0000 F   0  0  0  0  0  0  0  0  0  0  0  0
    3.0000    6.7990    0.0000 F   0  0  0  0  0  0  0  0  0  0  0  0
    4.5000    5.2990    0.0000 C   0  0  0  0  0  0  0  0  0  0  0  0
    4.5000    6.7990    0.0000 F   0  0  0  0  0  0  0  0  0  0  0  0
    4.5000    3.7990    0.0000 F   0  0  0  0  0  0  0  0  0  0  0  0
    6.0000    5.2990    0.0000 C   0  0  0  0  0  0  0  0  0  0  0  0
    6.0000    6.7990    0.0000 F   0  0  0  0  0  0  0  0  0  0  0  0
    6.0000    3.7990    0.0000 F   0  0  0  0  0  0  0  0  0  0  0  0
    7.5000    5.2990    0.0000 C   0  0  0  0  0  0  0  0  0  0  0  0
    7.5000    3.7990    0.0000 F   0  0  0  0  0  0  0  0  0  0  0  0
    7.5000    6.7990    0.0000 F   0  0  0  0  0  0  0  0  0  0  0  0
    9.0000    5.2990    0.0000 C   0  0  0  0  0  0  0  0  0  0  0  0
   10.5000    5.2990    0.0000 F   0  0  0  0  0  0  0  0  0  0  0  0
    9.0000    6.7990    0.0000 F   0  0  0  0  0  0  0  0  0  0  0  0
    9.0000    3.7990    0.0000 F   0  0  0  0  0  0  0  0  0  0  0  0
  1  2  1  0
  2  3  1  0
  3  4  1  0
  4  5  1  0
  3  6  1  0
  6  7  1  0
  3  8  1  0
  8  9  1  0
 10 11  2  0
 11 12  2  0
 11 13  1  0
 11 14  1  0
 14 15  1  0
 14 16  1  0
 14 17  1  0
 17 18  1  0
 17 19  1  0
 17 20  1  0
 20 21  1  0
 20 22  1  0
 20 23  1  0
 23 24  1  0
 23 25  1  0
 23 26  1  0
 26 27  1  0
 26 28  1  0
 26 29  1  0
 29 30  1  0
 29 31  1  0
 29 32  1  0
 32 33  1  0
 32 34  1  0
 32 35  1  0
M  CHG  2   3   1  13  -1
M  END
$$$$

     RDKit          2D

 29 28  0  0  0  0  0  0  0  0999 V2000
   -0.0000   -1.5000    0.0000 O   0  0  0  0  0  0  0  0  0  0  0  0
   -0.0000   -0.0000    0.0000 C   0  0  0  0  0  0  0  0  0  0  0  0
    0.0000    1.5000    0.0000 N   0  0  0  0  0  0  0  0  0  0  0  0
    1.2990    2.2500    0.0000 C   0  0  0  0  0  0  0  0  0  0  0  0
    1.2990    3.7500    0.0000 C   0  0  0  0  0  0  0  0  0  0  0  0
    2.1782    3.6420    0.0000 F   0  0  0  0  0  0  0  0  0  0  0  0
   -0.2010    3.7500    0.0000 F   0  0  0  0  0  0  0  0  0  0  0  0
    1.2990    5.2500    0.0000 C   0  0  0  0  0  0  0  0  0  0  0  0
   -0.2010    5.2500    0.0000 F   0  0  0  0  0  0  0  0  0  0  0  0
    2.7990    5.2500    0.0000 C   0  0  0  0  0  0  0  0  0  0  0  0
    4.2990    5.2500    0.0000 F   0  0  0  0  0  0  0  0  0  0  0  0
    2.9070    6.1291    0.0000 F   0  0  0  0  0  0  0  0  0  0  0  0
    2.9070    4.3709    0.0000 F   0  0  0  0  0  0  0  0  0  0  0  0
    1.2990    6.7500    0.0000 C   0  0  0  0  0  0  0  0  0  0  0  0
   -0.1898    6.5672    0.0000 F   0  0  0  0  0  0  0  0  0  0  0  0
    2.1782    6.8580    0.0000 F   0  0  0  0  0  0  0  0  0  0  0  0
    1.2990    8.2500    0.0000 C   0  0  0  0  0  0  0  0  0  0  0  0
    1.2990    9.7500    0.0000 C   0  0  0  0  0  0  0  0  0  0  0  0
    2.5981   10.5000    0.0000 N   0  0  0  0  0  0  0  0  0  0  0  0
    2.5981   12.0000    0.0000 C   0  0  0  0  0  0  0  0  0  0  0  0
    2.5981   13.5000    0.0000 O   0  0  0  0  0  0  0  0  0  0  0  0
    2.7990    8.2500    0.0000 C   0  0  0  0  0  0  0  0  0  0  0  0
    4.2990    8.2500    0.0000 F   0  0  0  0  0  0  0  0  0  0  0  0
    3.1518    9.1688    0.0000 F   0  0  0  0  0  0  0  0  0  0  0  0
    2.9070    9.1291    0.0000 F   0  0  0  0  0  0  0  0  0  0  0  0
   -0.2010    8.2500    0.0000 C   0  0  0  0  0  0  0  0  0  0  0  0
   -1.7010    8.2500    0.0000 F   0  0  0  0  0  0  0  0  0  0  0  0
   -0.2010    9.7500    0.0000 F   0  0  0  0  0  0  0  0  0  0  0  0
   -0.3838    6.7612    0.0000 F   0  0  0  0  0  0  0  0  0  0  0  0
  1  2  2  0
  2  3  2  0
  3  4  1  0
  4  5  1  0
  5  6  1  0
  5  7  1  0
  5  8  1  0
  8  9  1  0
  8 10  1  0
 10 11  1  0
 10 12  1  0
 10 13  1  0
  8 14  1  0
 14 15  1  0
 14 16  1  0
 14 17  1  0
 17 18  1  0
 18 19  1  0
 19 20  2  0
 20 21  2  0
 17 22  1  0
 22 23  1  0
 22 24  1  0
 22 25  1  0
 17 26  1  0
 26 27  1  0
 26 28  1  0
 26 29  1  0
M  END
$$$$

     RDKit          2D

 34 33  0  0  0  0  0  0  0  0999 V2000
   10.3923   -0.0000    0.0000 C   0  0  0  0  0  0  0  0  0  0  0  0
    9.0933    0.7500    0.0000 O   0  0  0  0  0  0  0  0  0  0  0  0
    7.7942   -0.0000    0.0000 C   0  0  0  0  0  0  0  0  0  0  0  0
    6.4952    0.7500    0.0000 C   0  0  0  0  0  0  0  0  0  0  0  0
    5.1962   -0.0000    0.0000 N   0  0  0  0  0  0  0  0  0  0  0  0
    3.8971    0.7500    0.0000 C   0  0  0  0  0  0  0  0  0  0  0  0
    5.1962   -1.5000    0.0000 P   0  0  0  0  0  0  0  0  0  0  0  0
    5.0133   -2.9888    0.0000 O   0  0  0  0  0  0  0  0  0  0  0  0
    3.6962   -1.5000    0.0000 C   0  0  0  0  0  0  0  0  0  0  0  0
    3.6962   -3.0000    0.0000 F   0  0  0  0  0  0  0  0  0  0  0  0
    2.1962   -1.5000    0.0000 F   0  0  0  0  0  0  0  0  0  0  0  0
    3.6962   -0.0000    0.0000 C   0  0  0  0  0  0  0  0  0  0  0  0
    2.9049    0.0972    0.0000 F   0  0  0  0  0  0  0  0  0  0  0  0
    2.9049   -0.0972    0.0000 F   0  0  0  0  0  0  0  0  0  0  0  0
    3.6962    1.5000    0.0000 C   0  0  0  0  0  0  0  0  0  0  0  0
    2.1962    1.5000    0.0000 F   0  0  0  0  0  0  0  0  0  0  0  0
    5.1962    1.5000    0.0000 F   0  0  0  0  0  0  0  0  0  0  0  0
    3.6962    3.0000    0.0000 C   0  0  0  0  0  0  0  0  0  0  0  0
    3.6962    4.5000    0.0000 F   0  0  0  0  0  0  0  0  0  0  0  0
    2.1962    3.0000    0.0000 F   0  0  0  0  0  0  0  0  0  0  0  0
    5.1962    3.0000    0.0000 F   0  0  0  0  0  0  0  0  0  0  0  0
    6.6962   -1.5000    0.0000 C   0  0  0  0  0  0  0  0  0  0  0  0
    7.0591   -0.0446    0.0000 F   0  0  0  0  0  0  0  0  0  0  0  0
    8.1962   -1.5000    0.0000 F   0  0  0  0  0  0  0  0  0  0  0  0
    6.6962   -3.0000    0.0000 C   0  0  0  0  0  0  0  0  0  0  0  0
    5.2073   -3.1828    0.0000 F   0  0  0  0  0  0  0  0  0  0  0  0
    8.1962   -3.0000    0.0000 F   0  0  0  0  0  0  0  0  0  0  0  0
    6.6962   -4.5000    0.0000 C   0  0  0  0  0  0  0  0  0  0  0  0
    8.1962   -4.5000    0.0000 F   0  0  0  0  0  0  0  0  0  0  0  0
    5.1962   -4.5000    0.0000 F   0  0  0  0  0  0  0  0  0  0  0  0
    6.6962   -6.0000    0.0000 C   0  0  0  0  0  0  0  0  0  0  0  0
    6.6962   -7.5000    0.0000 F   0  0  0  0  0  0  0  0  0  0  0  0
    5.1962   -6.0000    0.0000 F   0  0  0  0  0  0  0  0  0  0  0  0
    8.1962   -6.0000    0.0000 F   0  0  0  0  0  0  0  0  0  0  0  0
  1  2  1  0
  2  3  1  0
  3  4  1  0
  4  5  1  0
  5  6  1  0
  5  7  1  0
  7  8  2  0
  7  9  1  0
  9 10  1  0
  9 11  1  0
  9 12  1  0
 12 13  1  0
 12 14  1  0
 12 15  1  0
 15 16  1  0
 15 17  1  0
 15 18  1  0
 18 19  1  0
 18 20  1  0
 18 21  1  0
  7 22  1  0
 22 23  1  0
 22 24  1  0
 22 25  1  0
 25 26  1  0
 25 27  1  0
 25 28  1  0
 28 29  1  0
 28 30  1  0
 28 31  1  0
 31 32  1  0
 31 33  1  0
 31 34  1  0
M  END
$$$$

     RDKit          2D

160156  0  0  0  0  0  0  0  0999 V2000
   -1.4888   -1.3172    0.0000 O   0  0  0  0  0  0  0  0  0  0  0  0
   -0.0000   -1.5000    0.0000 P   0  0  0  0  0  0  0  0  0  0  0  0
    0.7912   -1.5972    0.0000 O   0  0  0  0  0  0  0  0  0  0  0  0
   -0.0000    0.0000    0.0000 C   0  0  0  0  0  0  0  0  0  0  0  0
   -1.5000    0.0000    0.0000 F   0  0  0  0  0  0  0  0  0  0  0  0
    0.0000    1.5000    0.0000 F   0  0  0  0  0  0  0  0  0  0  0  0
    1.5000    0.0000    0.0000 C   0  0  0  0  0  0  0  0  0  0  0  0
    1.5000    1.5000    0.0000 F   0  0  0  0  0  0  0  0  0  0  0  0
    1.6080   -0.8791    0.0000 F   0  0  0  0  0  0  0  0  0  0  0  0
    3.0000   -0.0000    0.0000 C   0  0  0  0  0  0  0  0  0  0  0  0
    3.0000   -1.5000    0.0000 F   0  0  0  0  0  0  0  0  0  0  0  0
    3.0000    1.5000    0.0000 F   0  0  0  0  0  0  0  0  0  0  0  0
    4.5000   -0.0000    0.0000 C   0  0  0  0  0  0  0  0  0  0  0  0
    4.5000    1.5000    0.0000 F   0  0  0  0  0  0  0  0  0  0  0  0
    4.5000   -1.5000    0.0000 F   0  0  0  0  0  0  0  0  0  0  0  0
    6.0000   -0.0000    0.0000 C   0  0  0  0  0  0  0  0  0  0  0  0
    6.0000    1.5000    0.0000 F   0  0  0  0  0  0  0  0  0  0  0  0
    6.0000   -1.5000    0.0000 F   0  0  0  0  0  0  0  0  0  0  0  0
    7.5000   -0.0000    0.0000 C   0  0  0  0  0  0  0  0  0  0  0  0
    7.5000   -1.5000    0.0000 F   0  0  0  0  0  0  0  0  0  0  0  0
    7.5000    1.5000    0.0000 F   0  0  0  0  0  0  0  0  0  0  0  0
    9.0000   -0.0000    0.0000 C   0  0  0  0  0  0  0  0  0  0  0  0
    9.0000    1.5000    0.0000 F   0  0  0  0  0  0  0  0  0  0  0  0
    9.0000   -1.5000    0.0000 F   0  0  0  0  0  0  0  0  0  0  0  0
   10.5000   -0.0000    0.0000 C   0  0  0  0  0  0  0  0  0  0  0  0
   12.0000   -0.0000    0.0000 F   0  0  0  0  0  0  0  0  0  0  0  0
   10.5000   -1.5000    0.0000 F   0  0  0  0  0  0  0  0  0  0  0  0
   10.5000    1.5000    0.0000 F   0  0  0  0  0  0  0  0  0  0  0  0
   -0.0000   -3.0000    0.0000 C   0  0  0  0  0  0  0  0  0  0  0  0
    1.5000   -3.0000    0.0000 F   0  0  0  0  0  0  0  0  0  0  0  0
   -0.0000   -4.5000    0.0000 F   0  0  0  0  0  0  0  0  0  0  0  0
   -1.5000   -3.0000    0.0000 C   0  0  0  0  0  0  0  0  0  0  0  0
   -1.6828   -1.5112    0.0000 F   0  0  0  0  0  0  0  0  0  0  0  0
   -1.5000   -4.5000    0.0000 F   0  0  0  0  0  0  0  0  0  0  0  0
   -3.0000   -3.0000    0.0000 C   0  0  0  0  0  0  0  0  0  0  0  0
   -3.0000   -1.5000    0.0000 F   0  0  0  0  0  0  0  0  0  0  0  0
   -3.0000   -4.5000    0.0000 F   0  0  0  0  0  0  0  0  0  0  0  0
   -4.5000   -3.0000    0.0000 C   0  0  0  0  0  0  0  0  0  0  0  0
   -4.5000   -4.5000    0.0000 F   0  0  0  0  0  0  0  0  0  0  0  0
   -4.5000   -1.5000    0.0000 F   0  0  0  0  0  0  0  0  0  0  0  0
   -6.0000   -3.0000    0.0000 C   0  0  0  0  0  0  0  0  0  0  0  0
   -6.0000   -4.5000    0.0000 F   0  0  0  0  0  0  0  0  0  0  0  0
   -6.0000   -1.5000    0.0000 F   0  0  0  0  0  0  0  0  0  0  0  0
   -7.5000   -3.0000    0.0000 C   0  0  0  0  0  0  0  0  0  0  0  0
   -7.5000   -1.5000    0.0000 F   0  0  0  0  0  0  0  0  0  0  0  0
   -7.5000   -4.5000    0.0000 F   0  0  0  0  0  0  0  0  0  0  0  0
   -9.0000   -3.0000    0.0000 C   0  0  0  0  0  0  0  0  0  0  0  0
   -9.0000   -4.5000    0.0000 F   0  0  0  0  0  0  0  0  0  0  0  0
   -9.0000   -1.5000    0.0000 F   0  0  0  0  0  0  0  0  0  0  0  0
  -10.5000   -3.0000    0.0000 C   0  0  0  0  0  0  0  0  0  0  0  0
  -12.0000   -3.0000    0.0000 F   0  0  0  0  0  0  0  0  0  0  0  0
  -10.5000   -1.5000    0.0000 F   0  0  0  0  0  0  0  0  0  0  0  0
  -10.5000   -4.5000    0.0000 F   0  0  0  0  0  0  0  0  0  0  0  0
   -1.4888    5.6828    0.0000 O   0  0  0  0  0  0  0  0  0  0  0  0
   -0.0000    5.5000    0.0000 P   0  0  0  0  0  0  0  0  0  0  0  0
    0.7912    5.4028    0.0000 O   0  0  0  0  0  0  0  0  0  0  0  0
   -0.0000    7.0000    0.0000 C   0  0  0  0  0  0  0  0  0  0  0  0
   -1.5000    7.0000    0.0000 F   0  0  0  0  0  0  0  0  0  0  0  0
    0.0000    8.5000    0.0000 F   0  0  0  0  0  0  0  0  0  0  0  0
    1.5000    7.0000    0.0000 C   0  0  0  0  0  0  0  0  0  0  0  0
    1.5000    8.5000    0.0000 F   0  0  0  0  0  0  0  0  0  0  0  0
    1.6080    6.1209    0.0000 F   0  0  0  0  0  0  0  0  0  0  0  0
    3.0000    7.0000    0.0000 C   0  0  0  0  0  0  0  0  0  0  0  0
    3.0000    5.5000    0.0000 F   0  0  0  0  0  0  0  0  0  0  0  0
    3.0000    8.5000    0.0000 F   0  0  0  0  0  0  0  0  0  0  0  0
    4.5000    7.0000    0.0000 C   0  0  0  0  0  0  0  0  0  0  0  0
    4.5000    8.5000    0.0000 F   0  0  0  0  0  0  0  0  0  0  0  0
    4.5000    5.5000    0.0000 F   0  0  0  0  0  0  0  0  0  0  0  0
    6.0000    7.0000    0.0000 C   0  0  0  0  0  0  0  0  0  0  0  0
    6.0000    8.5000    0.0000 F   0  0  0  0  0  0  0  0  0  0  0  0
    6.0000    5.5000    0.0000 F   0  0  0  0  0  0  0  0  0  0  0  0
    7.5000    7.0000    0.0000 C   0  0  0  0  0  0  0  0  0  0  0  0
    7.5000    5.5000    0.0000 F   0  0  0  0  0  0  0  0  0  0  0  0
    7.5000    8.5000    0.0000 F   0  0  0  0  0  0  0  0  0  0  0  0
    9.0000    7.0000    0.0000 C   0  0  0  0  0  0  0  0  0  0  0  0
    9.0000    8.5000    0.0000 F   0  0  0  0  0  0  0  0  0  0  0  0
    9.0000    5.5000    0.0000 F   0  0  0  0  0  0  0  0  0  0  0  0
   10.5000    7.0000    0.0000 C   0  0  0  0  0  0  0  0  0  0  0  0
   12.0000    7.0000    0.0000 F   0  0  0  0  0  0  0  0  0  0  0  0
   10.5000    5.5000    0.0000 F   0  0  0  0  0  0  0  0  0  0  0  0
   10.5000    8.5000    0.0000 F   0  0  0  0  0  0  0  0  0  0  0  0
   -0.0000    4.0000    0.0000 C   0  0  0  0  0  0  0  0  0  0  0  0
    1.5000    4.0000    0.0000 F   0  0  0  0  0  0  0  0  0  0  0  0
   -0.0000    2.5000    0.0000 F   0  0  0  0  0  0  0  0  0  0  0  0
   -1.5000    4.0000    0.0000 C   0  0  0  0  0  0  0  0  0  0  0  0
   -1.6828    5.4888    0.0000 F   0  0  0  0  0  0  0  0  0  0  0  0
   -1.5000    2.5000    0.0000 F   0  0  0  0  0  0  0  0  0  0  0  0
   -3.0000    4.0000    0.0000 C   0  0  0  0  0  0  0  0  0  0  0  0
   -3.0000    5.5000    0.0000 F   0  0  0  0  0  0  0  0  0  0  0  0
   -3.0000    2.5000    0.0000 F   0  0  0  0  0  0  0  0  0  0  0  0
   -4.5000    4.0000    0.0000 C   0  0  0  0  0  0  0  0  0  0  0  0
   -4.5000    2.5000    0.0000 F   0  0  0  0  0  0  0  0  0  0  0  0
   -4.5000    5.5000    0.0000 F   0  0  0  0  0  0  0  0  0  0  0  0
   -6.0000    4.0000    0.0000 C   0  0  0  0  0  0  0  0  0  0  0  0
   -6.0000    2.5000    0.0000 F   0  0  0  0  0  0  0  0  0  0  0  0
   -6.0000    5.5000    0.0000 F   0  0  0  0  0  0  0  0  0  0  0  0
   -7.5000    4.0000    0.0000 C   0  0  0  0  0  0  0  0  0  0  0  0
   -7.5000    5.5000    0.0000 F   0  0  0  0  0  0  0  0  0  0  0  0
   -7.5000    2.5000    0.0000 F   0  0  0  0  0  0  0  0  0  0  0  0
   -9.0000    4.0000    0.0000 C   0  0  0  0  0  0  0  0  0  0  0  0
   -9.0000    2.5000    0.0000 F   0  0  0  0  0  0  0  0  0  0  0  0
   -9.0000    5.5000    0.0000 F   0  0  0  0  0  0  0  0  0  0  0  0
  -10.5000    4.0000    0.0000 C   0  0  0  0  0  0  0  0  0  0  0  0
  -12.0000    4.0000    0.0000 F   0  0  0  0  0  0  0  0  0  0  0  0
  -10.5000    5.5000    0.0000 F   0  0  0  0  0  0  0  0  0  0  0  0
  -10.5000    2.5000    0.0000 F   0  0  0  0  0  0  0  0  0  0  0  0
   -1.4888   12.6828    0.0000 O   0  0  0  0  0  0  0  0  0  0  0  0
   -0.0000   12.5000    0.0000 P   0  0  0  0  0  0  0  0  0  0  0  0
    0.7912   12.4028    0.0000 O   0  0  0  0  0  0  0  0  0  0  0  0
   -0.0000   14.0000    0.0000 C   0  0  0  0  0  0  0  0  0  0  0  0
   -1.5000   14.0000    0.0000 F   0  0  0  0  0  0  0  0  0  0  0  0
    0.0000   15.5000    0.0000 F   0  0  0  0  0  0  0  0  0  0  0  0
    1.5000   14.0000    0.0000 C   0  0  0  0  0  0  0  0  0  0  0  0
    1.5000   15.5000    0.0000 F   0  0  0  0  0  0  0  0  0  0  0  0
    1.6080   13.1209    0.0000 F   0  0  0  0  0  0  0  0  0  0  0  0
    3.0000   14.0000    0.0000 C   0  0  0  0  0  0  0  0  0  0  0  0
    3.0000   12.5000    0.0000 F   0  0  0  0  0  0  0  0  0  0  0  0
    3.0000   15.5000    0.0000 F   0  0  0  0  0  0  0  0  0  0  0  0
    4.5000   14.0000    0.0000 C   0  0  0  0  0  0  0  0  0  0  0  0
    4.5000   15.5000    0.0000 F   0  0  0  0  0  0  0  0  0  0  0  0
    4.5000   12.5000    0.0000 F   0  0  0  0  0  0  0  0  0  0  0  0
    6.0000   14.0000    0.0000 C   0  0  0  0  0  0  0  0  0  0  0  0
    6.0000   15.5000    0.0000 F   0  0  0  0  0  0  0  0  0  0  0  0
    6.0000   12.5000    0.0000 F   0  0  0  0  0  0  0  0  0  0  0  0
    7.5000   14.0000    0.0000 C   0  0  0  0  0  0  0  0  0  0  0  0
    7.5000   12.5000    0.0000 F   0  0  0  0  0  0  0  0  0  0  0  0
    7.5000   15.5000    0.0000 F   0  0  0  0  0  0  0  0  0  0  0  0
    9.0000   14.0000    0.0000 C   0  0  0  0  0  0  0  0  0  0  0  0
    9.0000   15.5000    0.0000 F   0  0  0  0  0  0  0  0  0  0  0  0
    9.0000   12.5000    0.0000 F   0  0  0  0  0  0  0  0  0  0  0  0
   10.5000   14.0000    0.0000 C   0  0  0  0  0  0  0  0  0  0  0  0
   12.0000   14.0000    0.0000 F   0  0  0  0  0  0  0  0  0  0  0  0
   10.5000   12.5000    0.0000 F   0  0  0  0  0  0  0  0  0  0  0  0
   10.5000   15.5000    0.0000 F   0  0  0  0  0  0  0  0  0  0  0  0
   -0.0000   11.0000    0.0000 C   0  0  0  0  0  0  0  0  0  0  0  0
    1.5000   11.0000    0.0000 F   0  0  0  0  0  0  0  0  0  0  0  0
   -0.0000    9.5000    0.0000 F   0  0  0  0  0  0  0  0  0  0  0  0
   -1.5000   11.0000    0.0000 C   0  0  0  0  0  0  0  0  0  0  0  0
   -1.6828   12.4888    0.0000 F   0  0  0  0  0  0  0  0  0  0  0  0
   -1.5000    9.5000    0.0000 F   0  0  0  0  0  0  0  0  0  0  0  0
   -3.0000   11.0000    0.0000 C   0  0  0  0  0  0  0  0  0  0  0  0
   -3.0000   12.5000    0.0000 F   0  0  0  0  0  0  0  0  0  0  0  0
   -3.0000    9.5000    0.0000 F   0  0  0  0  0  0  0  0  0  0  0  0
   -4.5000   11.0000    0.0000 C   0  0  0  0  0  0  0  0  0  0  0  0
   -4.5000    9.5000    0.0000 F   0  0  0  0  0  0  0  0  0  0  0  0
   -4.5000   12.5000    0.0000 F   0  0  0  0  0  0  0  0  0  0  0  0
   -6.0000   11.0000    0.0000 C   0  0  0  0  0  0  0  0  0  0  0  0
   -6.0000    9.5000    0.0000 F   0  0  0  0  0  0  0  0  0  0  0  0
   -6.0000   12.5000    0.0000 F   0  0  0  0  0  0  0  0  0  0  0  0
   -7.5000   11.0000    0.0000 C   0  0  0  0  0  0  0  0  0  0  0  0
   -7.5000   12.5000    0.0000 F   0  0  0  0  0  0  0  0  0  0  0  0
   -7.5000    9.5000    0.0000 F   0  0  0  0  0  0  0  0  0  0  0  0
   -9.0000   11.0000    0.0000 C   0  0  0  0  0  0  0  0  0  0  0  0
   -9.0000    9.5000    0.0000 F   0  0  0  0  0  0  0  0  0  0  0  0
   -9.0000   12.5000    0.0000 F   0  0  0  0  0  0  0  0  0  0  0  0
  -10.5000   11.0000    0.0000 C   0  0  0  0  0  0  0  0  0  0  0  0
  -12.0000   11.0000    0.0000 F   0  0  0  0  0  0  0  0  0  0  0  0
  -10.5000   12.5000    0.0000 F   0  0  0  0  0  0  0  0  0  0  0  0
  -10.5000    9.5000    0.0000 F   0  0  0  0  0  0  0  0  0  0  0  0
    0.0000   16.5000    0.0000 Yb  0  0  0  0  0 15  0  0  0  0  0  0
  1  2  2  0
  2  3  1  0
  2  4  1  0
  4  5  1  0
  4  6  1  0
  4  7  1  0
  7  8  1  0
  7  9  1  0
  7 10  1  0
 10 11  1  0
 10 12  1  0
 10 13  1  0
 13 14  1  0
 13 15  1  0
 13 16  1  0
 16 17  1  0
 16 18  1  0
 16 19  1  0
 19 20  1  0
 19 21  1  0
 19 22  1  0
 22 23  1  0
 22 24  1  0
 22 25  1  0
 25 26  1  0
 25 27  1  0
 25 28  1  0
  2 29  1  0
 29 30  1  0
 29 31  1  0
 29 32  1  0
 32 33  1  0
 32 34  1  0
 32 35  1  0
 35 36  1  0
 35 37  1  0
 35 38  1  0
 38 39  1  0
 38 40  1  0
 38 41  1  0
 41 42  1  0
 41 43  1  0
 41 44  1  0
 44 45  1  0
 44 46  1  0
 44 47  1  0
 47 48  1  0
 47 49  1  0
 47 50  1  0
 50 51  1  0
 50 52  1  0
 50 53  1  0
 54 55  2  0
 55 56  1  0
 55 57  1  0
 57 58  1  0
 57 59  1  0
 57 60  1  0
 60 61  1  0
 60 62  1  0
 60 63  1  0
 63 64  1  0
 63 65  1  0
 63 66  1  0
 66 67  1  0
 66 68  1  0
 66 69  1  0
 69 70  1  0
 69 71  1  0
 69 72  1  0
 72 73  1  0
 72 74  1  0
 72 75  1  0
 75 76  1  0
 75 77  1  0
 75 78  1  0
 78 79  1  0
 78 80  1  0
 78 81  1  0
 55 82  1  0
 82 83  1  0
 82 84  1  0
 82 85  1  0
 85 86  1  0
 85 87  1  0
 85 88  1  0
 88 89  1  0
 88 90  1  0
 88 91  1  0
 91 92  1  0
 91 93  1  0
 91 94  1  0
 94 95  1  0
 94 96  1  0
 94 97  1  0
 97 98  1  0
 97 99  1  0
 97100  1  0
100101  1  0
100102  1  0
100103  1  0
103104  1  0
103105  1  0
103106  1  0
107108  2  0
108109  1  0
108110  1  0
110111  1  0
110112  1  0
110113  1  0
113114  1  0
113115  1  0
113116  1  0
116117  1  0
116118  1  0
116119  1  0
119120  1  0
119121  1  0
119122  1  0
122123  1  0
122124  1  0
122125  1  0
125126  1  0
125127  1  0
125128  1  0
128129  1  0
128130  1  0
128131  1  0
131132  1  0
131133  1  0
131134  1  0
108135  1  0
135136  1  0
135137  1  0
135138  1  0
138139  1  0
138140  1  0
138141  1  0
141142  1  0
141143  1  0
141144  1  0
144145  1  0
144146  1  0
144147  1  0
147148  1  0
147149  1  0
147150  1  0
150151  1  0
150152  1  0
150153  1  0
153154  1  0
153155  1  0
153156  1  0
156157  1  0
156158  1  0
156159  1  0
M  CHG  4   3  -1  56  -1 109  -1 160   3
M  END
$$$$

     RDKit          2D

 38 37  0  0  0  0  0  0  0  0999 V2000
    0.0000    0.0000    0.0000 C   0  0  0  0  0  0  0  0  0  0  0  0
    1.2990    0.7500    0.0000 N   0  0  0  0  0  0  0  0  0  0  0  0
    2.5981    1.5000    0.0000 C   0  0  0  0  0  0  0  0  0  0  0  0
    2.0490   -0.5490    0.0000 C   0  0  0  0  0  0  0  0  0  0  0  0
    3.5490   -0.5490    0.0000 C   0  0  0  0  0  0  0  0  0  0  0  0
    4.2990   -1.8481    0.0000 C   0  0  0  0  0  0  0  0  0  0  0  0
    5.7990   -1.8481    0.0000 N   0  0  0  0  0  0  0  0  0  0  0  0
    6.5490   -3.1471    0.0000 C   0  0  0  0  0  0  0  0  0  0  0  0
    8.0490   -3.1471    0.0000 C   0  0  0  0  0  0  0  0  0  0  0  0
    8.7990   -4.4462    0.0000 C   0  0  0  0  0  0  0  0  0  0  0  0
    8.0490   -5.7452    0.0000 O   0  0  0  0  0  0  0  0  0  0  0  0
   10.2990   -4.4462    0.0000 O   0  0  0  0  0  0  0  0  0  0  0  0
    6.5490   -0.5490    0.0000 S   0  0  0  0  0  0  0  0  0  0  0  0
    5.2500    0.2010    0.0000 O   0  0  0  0  0  0  0  0  0  0  0  0
    7.1857   -1.0288    0.0000 O   0  0  0  0  0  0  0  0  0  0  0  0
    7.2990    0.7500    0.0000 C   0  0  0  0  0  0  0  0  0  0  0  0
    6.0000    1.5000    0.0000 F   0  0  0  0  0  0  0  0  0  0  0  0
    8.0490    2.0490    0.0000 F   0  0  0  0  0  0  0  0  0  0  0  0
    8.5981    0.0000    0.0000 C   0  0  0  0  0  0  0  0  0  0  0  0
    9.3481    1.2990    0.0000 F   0  0  0  0  0  0  0  0  0  0  0  0
    8.2520   -0.8153    0.0000 F   0  0  0  0  0  0  0  0  0  0  0  0
    9.8971   -0.7500    0.0000 C   0  0  0  0  0  0  0  0  0  0  0  0
   10.6471    0.5490    0.0000 F   0  0  0  0  0  0  0  0  0  0  0  0
    9.1471   -2.0490    0.0000 F   0  0  0  0  0  0  0  0  0  0  0  0
   11.1962   -1.5000    0.0000 C   0  0  0  0  0  0  0  0  0  0  0  0
   10.4462   -2.7990    0.0000 F   0  0  0  0  0  0  0  0  0  0  0  0
   11.9462   -0.2010    0.0000 F   0  0  0  0  0  0  0  0  0  0  0  0
   12.4952   -2.2500    0.0000 C   0  0  0  0  0  0  0  0  0  0  0  0
   11.7452   -3.5490    0.0000 F   0  0  0  0  0  0  0  0  0  0  0  0
   13.2452   -0.9510    0.0000 F   0  0  0  0  0  0  0  0  0  0  0  0
   13.7942   -3.0000    0.0000 C   0  0  0  0  0  0  0  0  0  0  0  0
   15.0933   -3.7500    0.0000 F   0  0  0  0  0  0  0  0  0  0  0  0
   13.0442   -4.2990    0.0000 F   0  0  0  0  0  0  0  0  0  0  0  0
   14.5442   -1.7010    0.0000 F   0  0  0  0  0  0  0  0  0  0  0  0
    0.5490    2.0490    0.0000 C   0  0  0  0  0  0  0  0  0  0  0  0
    1.2990    3.3481    0.0000 C   0  0  0  0  0  0  0  0  0  0  0  0
    2.7990    3.3481    0.0000 O   0  0  0  0  0  0  0  0  0  0  0  0
    0.5490    4.6471    0.0000 O   0  0  0  0  0  0  0  0  0  0  0  0
  1  2  1  0
  2  3  1  0
  2  4  1  0
  4  5  1  0
  5  6  1  0
  6  7  1  0
  7  8  1  0
  8  9  1  0
  9 10  1  0
 10 11  2  0
 10 12  1  0
  7 13  1  0
 13 14  2  0
 13 15  2  0
 13 16  1  0
 16 17  1  0
 16 18  1  0
 16 19  1  0
 19 20  1  0
 19 21  1  0
 19 22  1  0
 22 23  1  0
 22 24  1  0
 22 25  1  0
 25 26  1  0
 25 27  1  0
 25 28  1  0
 28 29  1  0
 28 30  1  0
 28 31  1  0
 31 32  1  0
 31 33  1  0
 31 34  1  0
  2 35  1  0
 35 36  1  0
 36 37  2  0
 36 38  1  0
M  CHG  1   2   1
M  END
$$$$

     RDKit          2D

 52 50  0  0  0  0  0  0  0  0999 V2000
    7.5120   -2.3692    0.0000 O   0  0  0  0  0  0  0  0  0  0  0  0
    8.0981   -3.7500    0.0000 S   0  0  0  0  0  0  0  0  0  0  0  0
    8.8481   -5.0490    0.0000 O   0  0  0  0  0  0  0  0  0  0  0  0
    9.3971   -3.0000    0.0000 N   0  0  0  0  0  0  0  0  0  0  0  0
    9.3971   -1.5000    0.0000 S   0  0  0  0  0  0  0  0  0  0  0  0
    7.8971   -1.5000    0.0000 O   0  0  0  0  0  0  0  0  0  0  0  0
   10.1883   -1.5972    0.0000 O   0  0  0  0  0  0  0  0  0  0  0  0
    9.3971    0.0000    0.0000 C   0  0  0  0  0  0  0  0  0  0  0  0
    7.8971    0.0000    0.0000 F   0  0  0  0  0  0  0  0  0  0  0  0
    9.3971    1.5000    0.0000 F   0  0  0  0  0  0  0  0  0  0  0  0
   10.8971    0.0000    0.0000 C   0  0  0  0  0  0  0  0  0  0  0  0
   10.8971    1.5000    0.0000 F   0  0  0  0  0  0  0  0  0  0  0  0
   11.0051   -0.8791    0.0000 F   0  0  0  0  0  0  0  0  0  0  0  0
   12.3971   -0.0000    0.0000 C   0  0  0  0  0  0  0  0  0  0  0  0
   12.3971   -1.5000    0.0000 F   0  0  0  0  0  0  0  0  0  0  0  0
   12.3971    1.5000    0.0000 F   0  0  0  0  0  0  0  0  0  0  0  0
   13.8971   -0.0000    0.0000 C   0  0  0  0  0  0  0  0  0  0  0  0
   13.8971    1.5000    0.0000 F   0  0  0  0  0  0  0  0  0  0  0  0
   13.8971   -1.5000    0.0000 F   0  0  0  0  0  0  0  0  0  0  0  0
   15.3971   -0.0000    0.0000 C   0  0  0  0  0  0  0  0  0  0  0  0
   15.3971    1.5000    0.0000 F   0  0  0  0  0  0  0  0  0  0  0  0
   15.3971   -1.5000    0.0000 F   0  0  0  0  0  0  0  0  0  0  0  0
   16.8971   -0.0000    0.0000 C   0  0  0  0  0  0  0  0  0  0  0  0
   16.8971   -1.5000    0.0000 F   0  0  0  0  0  0  0  0  0  0  0  0
   16.8971    1.5000    0.0000 F   0  0  0  0  0  0  0  0  0  0  0  0
   18.3971   -0.0000    0.0000 C   0  0  0  0  0  0  0  0  0  0  0  0
   19.8971   -0.0000    0.0000 F   0  0  0  0  0  0  0  0  0  0  0  0
   18.3971    1.5000    0.0000 F   0  0  0  0  0  0  0  0  0  0  0  0
   18.3971   -1.5000    0.0000 F   0  0  0  0  0  0  0  0  0  0  0  0
    6.7990   -4.5000    0.0000 C   0  0  0  0  0  0  0  0  0  0  0  0
    7.5490   -5.7990    0.0000 F   0  0  0  0  0  0  0  0  0  0  0  0
    5.5000   -5.2500    0.0000 F   0  0  0  0  0  0  0  0  0  0  0  0
    6.0490   -3.2010    0.0000 C   0  0  0  0  0  0  0  0  0  0  0  0
    7.2470   -2.2982    0.0000 F   0  0  0  0  0  0  0  0  0  0  0  0
    4.7500   -3.9510    0.0000 F   0  0  0  0  0  0  0  0  0  0  0  0
    5.2990   -1.9019    0.0000 C   0  0  0  0  0  0  0  0  0  0  0  0
    6.5981   -1.1519    0.0000 F   0  0  0  0  0  0  0  0  0  0  0  0
    4.0000   -2.6519    0.0000 F   0  0  0  0  0  0  0  0  0  0  0  0
    4.5490   -0.6029    0.0000 C   0  0  0  0  0  0  0  0  0  0  0  0
    3.2500   -1.3529    0.0000 F   0  0  0  0  0  0  0  0  0  0  0  0
    5.8481    0.1471    0.0000 F   0  0  0  0  0  0  0  0  0  0  0  0
    3.7990    0.6962    0.0000 C   0  0  0  0  0  0  0  0  0  0  0  0
    2.5000   -0.0538    0.0000 F   0  0  0  0  0  0  0  0  0  0  0  0
    5.0981    1.4462    0.0000 F   0  0  0  0  0  0  0  0  0  0  0  0
    3.0490    1.9952    0.0000 C   0  0  0  0  0  0  0  0  0  0  0  0
    4.3481    2.7452    0.0000 F   0  0  0  0  0  0  0  0  0  0  0  0
    1.7500    1.2452    0.0000 F   0  0  0  0  0  0  0  0  0  0  0  0
    2.2990    3.2942    0.0000 C   0  0  0  0  0  0  0  0  0  0  0  0
    1.5490    4.5933    0.0000 F   0  0  0  0  0  0  0  0  0  0  0  0
    1.0000    2.5442    0.0000 F   0  0  0  0  0  0  0  0  0  0  0  0
    3.5981    4.0442    0.0000 F   0  0  0  0  0  0  0  0  0  0  0  0
    0.0000    0.0000    0.0000 Li  0  0  0  0  0 15  0  0  0  0  0  0
  1  2  2  0
  2  3  2  0
  2  4  1  0
  4  5  1  0
  5  6  2  0
  5  7  2  0
  5  8  1  0
  8  9  1  0
  8 10  1  0
  8 11  1  0
 11 12  1  0
 11 13  1  0
 11 14  1  0
 14 15  1  0
 14 16  1  0
 14 17  1  0
 17 18  1  0
 17 19  1  0
 17 20  1  0
 20 21  1  0
 20 22  1  0
 20 23  1  0
 23 24  1  0
 23 25  1  0
 23 26  1  0
 26 27  1  0
 26 28  1  0
 26 29  1  0
  2 30  1  0
 30 31  1  0
 30 32  1  0
 30 33  1  0
 33 34  1  0
 33 35  1  0
 33 36  1  0
 36 37  1  0
 36 38  1  0
 36 39  1  0
 39 40  1  0
 39 41  1  0
 39 42  1  0
 42 43  1  0
 42 44  1  0
 42 45  1  0
 45 46  1  0
 45 47  1  0
 45 48  1  0
 48 49  1  0
 48 50  1  0
 48 51  1  0
M  CHG  2   4  -1  52   1
M  END
$$$$

     RDKit          2D

 43 41  0  0  0  0  0  0  0  0999 V2000
    1.2990    2.2500    0.0000 O   0  0  0  0  0  0  0  0  0  0  0  0
    1.2990    0.7500    0.0000 C   0  0  0  0  0  0  0  0  0  0  0  0
    0.0000    0.0000    0.0000 C   0  0  0  0  0  0  0  0  0  0  0  0
   -1.2990    0.7500    0.0000 C   0  0  0  0  0  0  0  0  0  0  0  0
   -2.5981    0.0000    0.0000 C   0  0  0  0  0  0  0  0  0  0  0  0
   -2.5981   -1.5000    0.0000 O   0  0  0  0  0  0  0  0  0  0  0  0
   -3.8971    0.7500    0.0000 O   0  0  0  0  0  0  0  0  0  0  0  0
   -5.1962    0.0000    0.0000 C   0  0  0  0  0  0  0  0  0  0  0  0
   -6.4952    0.7500    0.0000 C   0  0  0  0  0  0  0  0  0  0  0  0
   -7.7942    0.0000    0.0000 C   0  0  0  0  0  0  0  0  0  0  0  0
   -8.5442    1.2990    0.0000 F   0  0  0  0  0  0  0  0  0  0  0  0
   -7.0442   -1.2990    0.0000 F   0  0  0  0  0  0  0  0  0  0  0  0
   -9.0933   -0.7500    0.0000 C   0  0  0  0  0  0  0  0  0  0  0  0
   -8.3433   -2.0490    0.0000 F   0  0  0  0  0  0  0  0  0  0  0  0
   -9.8433    0.5490    0.0000 F   0  0  0  0  0  0  0  0  0  0  0  0
  -10.3923   -1.5000    0.0000 C   0  0  0  0  0  0  0  0  0  0  0  0
  -11.1423   -0.2010    0.0000 F   0  0  0  0  0  0  0  0  0  0  0  0
   -9.6423   -2.7990    0.0000 F   0  0  0  0  0  0  0  0  0  0  0  0
  -11.6913   -2.2500    0.0000 C   0  0  0  0  0  0  0  0  0  0  0  0
  -12.9904   -3.0000    0.0000 F   0  0  0  0  0  0  0  0  0  0  0  0
  -10.9413   -3.5490    0.0000 F   0  0  0  0  0  0  0  0  0  0  0  0
  -12.4413   -0.9510    0.0000 F   0  0  0  0  0  0  0  0  0  0  0  0
   -1.2990    2.2500    0.0000 S   0  0  0  0  0  0  0  0  0  0  0  0
   -2.7990    2.2500    0.0000 O   0  0  0  0  0  0  0  0  0  0  0  0
    0.2010    2.2500    0.0000 O   0  0  0  0  0  0  0  0  0  0  0  0
   -1.2990    3.7500    0.0000 O   0  0  0  0  0  0  0  0  0  0  0  0
    2.5981   -0.0000    0.0000 O   0  0  0  0  0  0  0  0  0  0  0  0
    3.8971    0.7500    0.0000 C   0  0  0  0  0  0  0  0  0  0  0  0
    5.1962   -0.0000    0.0000 C   0  0  0  0  0  0  0  0  0  0  0  0
    6.4952    0.7500    0.0000 C   0  0  0  0  0  0  0  0  0  0  0  0
    7.2452   -0.5490    0.0000 F   0  0  0  0  0  0  0  0  0  0  0  0
    5.7452    2.0490    0.0000 F   0  0  0  0  0  0  0  0  0  0  0  0
    7.7942    1.5000    0.0000 C   0  0  0  0  0  0  0  0  0  0  0  0
    7.0442    2.7990    0.0000 F   0  0  0  0  0  0  0  0  0  0  0  0
    8.5442    0.2010    0.0000 F   0  0  0  0  0  0  0  0  0  0  0  0
    9.0933    2.2500    0.0000 C   0  0  0  0  0  0  0  0  0  0  0  0
    9.8433    0.9510    0.0000 F   0  0  0  0  0  0  0  0  0  0  0  0
    8.3433    3.5490    0.0000 F   0  0  0  0  0  0  0  0  0  0  0  0
   10.3923    3.0000    0.0000 C   0  0  0  0  0  0  0  0  0  0  0  0
   11.6913    3.7500    0.0000 F   0  0  0  0  0  0  0  0  0  0  0  0
    9.6423    4.2990    0.0000 F   0  0  0  0  0  0  0  0  0  0  0  0
   11.1423    1.7010    0.0000 F   0  0  0  0  0  0  0  0  0  0  0  0
    0.0000    5.2990    0.0000 Na  0  0  0  0  0 15  0  0  0  0  0  0
  1  2  2  0
  2  3  1  0
  3  4  1  0
  4  5  1  0
  5  6  2  0
  5  7  1  0
  7  8  1  0
  8  9  1  0
  9 10  1  0
 10 11  1  0
 10 12  1  0
 10 13  1  0
 13 14  1  0
 13 15  1  0
 13 16  1  0
 16 17  1  0
 16 18  1  0
 16 19  1  0
 19 20  1  0
 19 21  1  0
 19 22  1  0
  4 23  1  0
 23 24  2  0
 23 25  2  0
 23 26  1  0
  2 27  1  0
 27 28  1  0
 28 29  1  0
 29 30  1  0
 30 31  1  0
 30 32  1  0
 30 33  1  0
 33 34  1  0
 33 35  1  0
 33 36  1  0
 36 37  1  0
 36 38  1  0
 36 39  1  0
 39 40  1  0
 39 41  1  0
 39 42  1  0
M  CHG  2  26  -1  43   1
M  END
$$$$

     RDKit          2D

 29 27  0  0  0  0  0  0  0  0999 V2000
    1.1979    2.4028    0.0000 O   0  0  0  0  0  0  0  0  0  0  0  0
    0.0000    1.5000    0.0000 S   0  0  0  0  0  0  0  0  0  0  0  0
   -1.2990    2.2500    0.0000 O   0  0  0  0  0  0  0  0  0  0  0  0
    0.0000    0.0000    0.0000 C   0  0  0  0  0  0  0  0  0  0  0  0
   -1.5000   -0.0000    0.0000 F   0  0  0  0  0  0  0  0  0  0  0  0
    0.0000   -1.5000    0.0000 F   0  0  0  0  0  0  0  0  0  0  0  0
    1.5000    0.0000    0.0000 C   0  0  0  0  0  0  0  0  0  0  0  0
    1.6828    1.4888    0.0000 F   0  0  0  0  0  0  0  0  0  0  0  0
    1.5000   -1.5000    0.0000 F   0  0  0  0  0  0  0  0  0  0  0  0
    3.0000    0.0000    0.0000 C   0  0  0  0  0  0  0  0  0  0  0  0
    3.0000   -1.5000    0.0000 F   0  0  0  0  0  0  0  0  0  0  0  0
    3.0000    1.5000    0.0000 F   0  0  0  0  0  0  0  0  0  0  0  0
    4.5000    0.0000    0.0000 C   0  0  0  0  0  0  0  0  0  0  0  0
    4.5000    1.5000    0.0000 F   0  0  0  0  0  0  0  0  0  0  0  0
    4.5000   -1.5000    0.0000 F   0  0  0  0  0  0  0  0  0  0  0  0
    6.0000    0.0000    0.0000 C   0  0  0  0  0  0  0  0  0  0  0  0
    6.0000    1.5000    0.0000 F   0  0  0  0  0  0  0  0  0  0  0  0
    6.0000   -1.5000    0.0000 F   0  0  0  0  0  0  0  0  0  0  0  0
    7.5000    0.0000    0.0000 C   0  0  0  0  0  0  0  0  0  0  0  0
    7.5000   -1.5000    0.0000 F   0  0  0  0  0  0  0  0  0  0  0  0
    7.5000    1.5000    0.0000 F   0  0  0  0  0  0  0  0  0  0  0  0
    9.0000    0.0000    0.0000 C   0  0  0  0  0  0  0  0  0  0  0  0
    9.0000    1.5000    0.0000 F   0  0  0  0  0  0  0  0  0  0  0  0
    9.0000   -1.5000    0.0000 F   0  0  0  0  0  0  0  0  0  0  0  0
   10.5000    0.0000    0.0000 C   0  0  0  0  0  0  0  0  0  0  0  0
   12.0000    0.0000    0.0000 F   0  0  0  0  0  0  0  0  0  0  0  0
   10.5000   -1.5000    0.0000 F   0  0  0  0  0  0  0  0  0  0  0  0
   10.5000    1.5000    0.0000 F   0  0  0  0  0  0  0  0  0  0  0  0
    0.0000    3.4028    0.0000 N   0  0  0  0  0  0  0  0  0  0  0  0
  1  2  2  0
  2  3  1  0
  2  4  1  0
  4  5  1  0
  4  6  1  0
  4  7  1  0
  7  8  1  0
  7  9  1  0
  7 10  1  0
 10 11  1  0
 10 12  1  0
 10 13  1  0
 13 14  1  0
 13 15  1  0
 13 16  1  0
 16 17  1  0
 16 18  1  0
 16 19  1  0
 19 20  1  0
 19 21  1  0
 19 22  1  0
 22 23  1  0
 22 24  1  0
 22 25  1  0
 25 26  1  0
 25 27  1  0
 25 28  1  0
M  CHG  2   3  -1  29   1
M  END
$$$$

     RDKit          2D

 67 65  0  0  0  0  0  0  0  0999 V2000
    1.2990    2.2500    0.0000 O   0  0  0  0  0  0  0  0  0  0  0  0
    1.2990    0.7500    0.0000 C   0  0  0  0  0  0  0  0  0  0  0  0
    0.0000    0.0000    0.0000 C   0  0  0  0  0  0  0  0  0  0  0  0
   -1.2990    0.7500    0.0000 C   0  0  0  0  0  0  0  0  0  0  0  0
   -2.5981    0.0000    0.0000 C   0  0  0  0  0  0  0  0  0  0  0  0
   -2.5981   -1.5000    0.0000 O   0  0  0  0  0  0  0  0  0  0  0  0
   -3.8971    0.7500    0.0000 O   0  0  0  0  0  0  0  0  0  0  0  0
   -5.1962    0.0000    0.0000 C   0  0  0  0  0  0  0  0  0  0  0  0
   -6.4952    0.7500    0.0000 C   0  0  0  0  0  0  0  0  0  0  0  0
   -7.7942    0.0000    0.0000 C   0  0  0  0  0  0  0  0  0  0  0  0
   -8.5442    1.2990    0.0000 F   0  0  0  0  0  0  0  0  0  0  0  0
   -7.0442   -1.2990    0.0000 F   0  0  0  0  0  0  0  0  0  0  0  0
   -9.0933   -0.7500    0.0000 C   0  0  0  0  0  0  0  0  0  0  0  0
   -8.3433   -2.0490    0.0000 F   0  0  0  0  0  0  0  0  0  0  0  0
   -9.8433    0.5490    0.0000 F   0  0  0  0  0  0  0  0  0  0  0  0
  -10.3923   -1.5000    0.0000 C   0  0  0  0  0  0  0  0  0  0  0  0
  -11.1423   -0.2010    0.0000 F   0  0  0  0  0  0  0  0  0  0  0  0
   -9.6423   -2.7990    0.0000 F   0  0  0  0  0  0  0  0  0  0  0  0
  -11.6913   -2.2500    0.0000 C   0  0  0  0  0  0  0  0  0  0  0  0
  -10.9413   -3.5490    0.0000 F   0  0  0  0  0  0  0  0  0  0  0  0
  -12.4413   -0.9510    0.0000 F   0  0  0  0  0  0  0  0  0  0  0  0
  -12.9904   -3.0000    0.0000 C   0  0  0  0  0  0  0  0  0  0  0  0
  -13.7404   -1.7010    0.0000 F   0  0  0  0  0  0  0  0  0  0  0  0
  -12.2404   -4.2990    0.0000 F   0  0  0  0  0  0  0  0  0  0  0  0
  -14.2894   -3.7500    0.0000 C   0  0  0  0  0  0  0  0  0  0  0  0
  -13.5394   -5.0490    0.0000 F   0  0  0  0  0  0  0  0  0  0  0  0
  -15.0394   -2.4510    0.0000 F   0  0  0  0  0  0  0  0  0  0  0  0
  -15.5885   -4.5000    0.0000 C   0  0  0  0  0  0  0  0  0  0  0  0
  -16.3385   -3.2010    0.0000 F   0  0  0  0  0  0  0  0  0  0  0  0
  -14.8385   -5.7990    0.0000 F   0  0  0  0  0  0  0  0  0  0  0  0
  -16.8875   -5.2500    0.0000 C   0  0  0  0  0  0  0  0  0  0  0  0
  -18.1865   -6.0000    0.0000 F   0  0  0  0  0  0  0  0  0  0  0  0
  -16.1375   -6.5490    0.0000 F   0  0  0  0  0  0  0  0  0  0  0  0
  -17.6375   -3.9510    0.0000 F   0  0  0  0  0  0  0  0  0  0  0  0
   -1.2990    2.2500    0.0000 S   0  0  0  0  0  0  0  0  0  0  0  0
   -2.7990    2.2500    0.0000 O   0  0  0  0  0  0  0  0  0  0  0  0
    0.2010    2.2500    0.0000 O   0  0  0  0  0  0  0  0  0  0  0  0
   -1.2990    3.7500    0.0000 O   0  0  0  0  0  0  0  0  0  0  0  0
    2.5981   -0.0000    0.0000 O   0  0  0  0  0  0  0  0  0  0  0  0
    3.8971    0.7500    0.0000 C   0  0  0  0  0  0  0  0  0  0  0  0
    5.1962   -0.0000    0.0000 C   0  0  0  0  0  0  0  0  0  0  0  0
    6.4952    0.7500    0.0000 C   0  0  0  0  0  0  0  0  0  0  0  0
    7.2452   -0.5490    0.0000 F   0  0  0  0  0  0  0  0  0  0  0  0
    5.7452    2.0490    0.0000 F   0  0  0  0  0  0  0  0  0  0  0  0
    7.7942    1.5000    0.0000 C   0  0  0  0  0  0  0  0  0  0  0  0
    7.0442    2.7990    0.0000 F   0  0  0  0  0  0  0  0  0  0  0  0
    8.5442    0.2010    0.0000 F   0  0  0  0  0  0  0  0  0  0  0  0
    9.0933    2.2500    0.0000 C   0  0  0  0  0  0  0  0  0  0  0  0
    9.8433    0.9510    0.0000 F   0  0  0  0  0  0  0  0  0  0  0  0
    8.3433    3.5490    0.0000 F   0  0  0  0  0  0  0  0  0  0  0  0
   10.3923    3.0000    0.0000 C   0  0  0  0  0  0  0  0  0  0  0  0
    9.6423    4.2990    0.0000 F   0  0  0  0  0  0  0  0  0  0  0  0
   11.1423    1.7010    0.0000 F   0  0  0  0  0  0  0  0  0  0  0  0
   11.6913    3.7500    0.0000 C   0  0  0  0  0  0  0  0  0  0  0  0
   12.4413    2.4510    0.0000 F   0  0  0  0  0  0  0  0  0  0  0  0
   10.9413    5.0490    0.0000 F   0  0  0  0  0  0  0  0  0  0  0  0
   12.9904    4.5000    0.0000 C   0  0  0  0  0  0  0  0  0  0  0  0
   12.2404    5.7990    0.0000 F   0  0  0  0  0  0  0  0  0  0  0  0
   13.7404    3.2010    0.0000 F   0  0  0  0  0  0  0  0  0  0  0  0
   14.2894    5.2500    0.0000 C   0  0  0  0  0  0  0  0  0  0  0  0
   15.0394    3.9510    0.0000 F   0  0  0  0  0  0  0  0  0  0  0  0
   13.5394    6.5490    0.0000 F   0  0  0  0  0  0  0  0  0  0  0  0
   15.5885    6.0000    0.0000 C   0  0  0  0  0  0  0  0  0  0  0  0
   16.8875    6.7500    0.0000 F   0  0  0  0  0  0  0  0  0  0  0  0
   14.8385    7.2990    0.0000 F   0  0  0  0  0  0  0  0  0  0  0  0
   16.3385    4.7010    0.0000 F   0  0  0  0  0  0  0  0  0  0  0  0
    0.0000    8.2990    0.0000 Na  0  0  0  0  0 15  0  0  0  0  0  0
  1  2  2  0
  2  3  1  0
  3  4  1  0
  4  5  1  0
  5  6  2  0
  5  7  1  0
  7  8  1  0
  8  9  1  0
  9 10  1  0
 10 11  1  0
 10 12  1  0
 10 13  1  0
 13 14  1  0
 13 15  1  0
 13 16  1  0
 16 17  1  0
 16 18  1  0
 16 19  1  0
 19 20  1  0
 19 21  1  0
 19 22  1  0
 22 23  1  0
 22 24  1  0
 22 25  1  0
 25 26  1  0
 25 27  1  0
 25 28  1  0
 28 29  1  0
 28 30  1  0
 28 31  1  0
 31 32  1  0
 31 33  1  0
 31 34  1  0
  4 35  1  0
 35 36  2  0
 35 37  2  0
 35 38  1  0
  2 39  1  0
 39 40  1  0
 40 41  1  0
 41 42  1  0
 42 43  1  0
 42 44  1  0
 42 45  1  0
 45 46  1  0
 45 47  1  0
 45 48  1  0
 48 49  1  0
 48 50  1  0
 48 51  1  0
 51 52  1  0
 51 53  1  0
 51 54  1  0
 54 55  1  0
 54 56  1  0
 54 57  1  0
 57 58  1  0
 57 59  1  0
 57 60  1  0
 60 61  1  0
 60 62  1  0
 60 63  1  0
 63 64  1  0
 63 65  1  0
 63 66  1  0
M  CHG  2  38  -1  67   1
M  END
$$$$

     RDKit          2D

 35 34  0  0  0  0  0  0  0  0999 V2000
    0.0000    0.0000    0.0000 C   0  0  0  0  0  0  0  0  0  0  0  0
    1.2990    0.7500    0.0000 C   0  0  0  0  0  0  0  0  0  0  0  0
    2.5981   -0.0000    0.0000 C   0  0  0  0  0  0  0  0  0  0  0  0
    3.8971    0.7500    0.0000 C   0  0  0  0  0  0  0  0  0  0  0  0
    5.1962   -0.0000    0.0000 C   0  0  0  0  0  0  0  0  0  0  0  0
    6.4952    0.7500    0.0000 C   0  0  0  0  0  0  0  0  0  0  0  0
    7.7942   -0.0000    0.0000 C   0  0  0  0  0  0  0  0  0  0  0  0
    9.0933    0.7500    0.0000 C   0  0  0  0  0  0  0  0  0  0  0  0
   10.3923   -0.0000    0.0000 N   0  0  0  0  0  0  0  0  0  0  0  0
   11.6913    0.7500    0.0000 C   0  0  0  0  0  0  0  0  0  0  0  0
   12.9904   -0.0000    0.0000 C   0  0  0  0  0  0  0  0  0  0  0  0
   12.9904   -1.5000    0.0000 O   0  0  0  0  0  0  0  0  0  0  0  0
   14.2894    0.7500    0.0000 C   0  0  0  0  0  0  0  0  0  0  0  0
   15.5885   -0.0000    0.0000 O   0  0  0  0  0  0  0  0  0  0  0  0
   16.8875    0.7500    0.0000 C   0  0  0  0  0  0  0  0  0  0  0  0
   18.1865   -0.0000    0.0000 C   0  0  0  0  0  0  0  0  0  0  0  0
   19.4856    0.7500    0.0000 C   0  0  0  0  0  0  0  0  0  0  0  0
   20.2356   -0.5490    0.0000 F   0  0  0  0  0  0  0  0  0  0  0  0
   18.7356    2.0490    0.0000 F   0  0  0  0  0  0  0  0  0  0  0  0
   20.7846    1.5000    0.0000 C   0  0  0  0  0  0  0  0  0  0  0  0
   20.0346    2.7990    0.0000 F   0  0  0  0  0  0  0  0  0  0  0  0
   21.5346    0.2010    0.0000 F   0  0  0  0  0  0  0  0  0  0  0  0
   22.0836    2.2500    0.0000 C   0  0  0  0  0  0  0  0  0  0  0  0
   22.8336    0.9510    0.0000 F   0  0  0  0  0  0  0  0  0  0  0  0
   21.3336    3.5490    0.0000 F   0  0  0  0  0  0  0  0  0  0  0  0
   23.3827    3.0000    0.0000 C   0  0  0  0  0  0  0  0  0  0  0  0
   22.6327    4.2990    0.0000 F   0  0  0  0  0  0  0  0  0  0  0  0
   24.1327    1.7010    0.0000 F   0  0  0  0  0  0  0  0  0  0  0  0
   24.6817    3.7500    0.0000 C   0  0  0  0  0  0  0  0  0  0  0  0
   25.4317    2.4510    0.0000 F   0  0  0  0  0  0  0  0  0  0  0  0
   23.9317    5.0490    0.0000 F   0  0  0  0  0  0  0  0  0  0  0  0
   25.9808    4.5000    0.0000 C   0  0  0  0  0  0  0  0  0  0  0  0
   27.2798    5.2500    0.0000 F   0  0  0  0  0  0  0  0  0  0  0  0
   25.2308    5.7990    0.0000 F   0  0  0  0  0  0  0  0  0  0  0  0
   26.7308    3.2010    0.0000 F   0  0  0  0  0  0  0  0  0  0  0  0
  1  2  1  0
  2  3  1  0
  3  4  1  0
  4  5  1  0
  5  6  1  0
  6  7  1  0
  7  8  1  0
  8  9  1  0
  9 10  1  0
 10 11  1  0
 11 12  1  0
 11 13  1  0
 13 14  1  0
 14 15  1  0
 15 16  1  0
 16 17  1  0
 17 18  1  0
 17 19  1  0
 17 20  1  0
 20 21  1  0
 20 22  1  0
 20 23  1  0
 23 24  1  0
 23 25  1  0
 23 26  1  0
 26 27  1  0
 26 28  1  0
 26 29  1  0
 29 30  1  0
 29 31  1  0
 29 32  1  0
 32 33  1  0
 32 34  1  0
 32 35  1  0
M  END
$$$$

     RDKit          2D

 31 30  0  0  0  0  0  0  0  0999 V2000
    0.0000    0.0000    0.0000 C   0  0  0  0  0  0  0  0  0  0  0  0
    1.2990    0.7500    0.0000 N   0  0  0  0  0  0  0  0  0  0  0  0
    2.5981    1.5000    0.0000 C   0  0  0  0  0  0  0  0  0  0  0  0
    0.5490    2.0490    0.0000 O   0  0  0  0  0  0  0  0  0  0  0  0
    2.0490   -0.5490    0.0000 C   0  0  0  0  0  0  0  0  0  0  0  0
    3.5490   -0.5490    0.0000 C   0  0  0  0  0  0  0  0  0  0  0  0
    4.2990   -1.8481    0.0000 C   0  0  0  0  0  0  0  0  0  0  0  0
    5.5981   -1.0981    0.0000 F   0  0  0  0  0  0  0  0  0  0  0  0
    3.0000   -2.5981    0.0000 F   0  0  0  0  0  0  0  0  0  0  0  0
    5.0490   -3.1471    0.0000 C   0  0  0  0  0  0  0  0  0  0  0  0
    3.7500   -3.8971    0.0000 F   0  0  0  0  0  0  0  0  0  0  0  0
    6.3481   -2.3971    0.0000 F   0  0  0  0  0  0  0  0  0  0  0  0
    5.7990   -4.4462    0.0000 C   0  0  0  0  0  0  0  0  0  0  0  0
    7.0981   -3.6962    0.0000 F   0  0  0  0  0  0  0  0  0  0  0  0
    4.5000   -5.1962    0.0000 F   0  0  0  0  0  0  0  0  0  0  0  0
    6.5490   -5.7452    0.0000 C   0  0  0  0  0  0  0  0  0  0  0  0
    5.2500   -6.4952    0.0000 F   0  0  0  0  0  0  0  0  0  0  0  0
    7.8481   -4.9952    0.0000 F   0  0  0  0  0  0  0  0  0  0  0  0
    7.2990   -7.0442    0.0000 C   0  0  0  0  0  0  0  0  0  0  0  0
    8.5981   -6.2942    0.0000 F   0  0  0  0  0  0  0  0  0  0  0  0
    6.0000   -7.7942    0.0000 F   0  0  0  0  0  0  0  0  0  0  0  0
    8.0490   -8.3433    0.0000 C   0  0  0  0  0  0  0  0  0  0  0  0
    6.7500   -9.0933    0.0000 F   0  0  0  0  0  0  0  0  0  0  0  0
    9.3481   -7.5933    0.0000 F   0  0  0  0  0  0  0  0  0  0  0  0
    8.7990   -9.6423    0.0000 C   0  0  0  0  0  0  0  0  0  0  0  0
   10.0981   -8.8923    0.0000 F   0  0  0  0  0  0  0  0  0  0  0  0
    7.5000  -10.3923    0.0000 F   0  0  0  0  0  0  0  0  0  0  0  0
    9.5490  -10.9413    0.0000 C   0  0  0  0  0  0  0  0  0  0  0  0
   10.2990  -12.2404    0.0000 F   0  0  0  0  0  0  0  0  0  0  0  0
    8.2500  -11.6913    0.0000 F   0  0  0  0  0  0  0  0  0  0  0  0
   10.8481  -10.1913    0.0000 F   0  0  0  0  0  0  0  0  0  0  0  0
  1  2  1  0
  2  3  1  0
  2  4  1  0
  2  5  1  0
  5  6  1  0
  6  7  1  0
  7  8  1  0
  7  9  1  0
  7 10  1  0
 10 11  1  0
 10 12  1  0
 10 13  1  0
 13 14  1  0
 13 15  1  0
 13 16  1  0
 16 17  1  0
 16 18  1  0
 16 19  1  0
 19 20  1  0
 19 21  1  0
 19 22  1  0
 22 23  1  0
 22 24  1  0
 22 25  1  0
 25 26  1  0
 25 27  1  0
 25 28  1  0
 28 29  1  0
 28 30  1  0
 28 31  1  0
M  CHG  2   2   1   4  -1
M  END
$$$$

     RDKit          2D

 37 36  0  0  0  0  0  0  0  0999 V2000
    0.0000    0.0000    0.0000 C   0  0  0  0  0  0  0  0  0  0  0  0
    1.2990    0.7500    0.0000 C   0  0  0  0  0  0  0  0  0  0  0  0
    2.5981   -0.0000    0.0000 O   0  0  0  0  0  0  0  0  0  0  0  0
    3.8971    0.7500    0.0000 Si  0  0  0  0  0  4  0  0  0  0  0  0
    5.1962    1.5000    0.0000 C   0  0  0  0  0  0  0  0  0  0  0  0
    5.1962    3.0000    0.0000 C   0  0  0  0  0  0  0  0  0  0  0  0
    6.4952    3.7500    0.0000 C   0  0  0  0  0  0  0  0  0  0  0  0
    6.4952    5.2500    0.0000 O   0  0  0  0  0  0  0  0  0  0  0  0
    7.7942    6.0000    0.0000 C   0  0  0  0  0  0  0  0  0  0  0  0
    7.7942    7.5000    0.0000 C   0  0  0  0  0  0  0  0  0  0  0  0
    9.2942    7.5000    0.0000 F   0  0  0  0  0  0  0  0  0  0  0  0
    6.2942    7.5000    0.0000 F   0  0  0  0  0  0  0  0  0  0  0  0
    7.7942    9.0000    0.0000 C   0  0  0  0  0  0  0  0  0  0  0  0
    6.2942    9.0000    0.0000 F   0  0  0  0  0  0  0  0  0  0  0  0
    9.2942    9.0000    0.0000 F   0  0  0  0  0  0  0  0  0  0  0  0
    7.7942   10.5000    0.0000 C   0  0  0  0  0  0  0  0  0  0  0  0
    9.2942   10.5000    0.0000 F   0  0  0  0  0  0  0  0  0  0  0  0
    6.2942   10.5000    0.0000 F   0  0  0  0  0  0  0  0  0  0  0  0
    7.7942   12.0000    0.0000 C   0  0  0  0  0  0  0  0  0  0  0  0
    6.2942   12.0000    0.0000 F   0  0  0  0  0  0  0  0  0  0  0  0
    9.2942   12.0000    0.0000 F   0  0  0  0  0  0  0  0  0  0  0  0
    7.7942   13.5000    0.0000 C   0  0  0  0  0  0  0  0  0  0  0  0
    9.2942   13.5000    0.0000 F   0  0  0  0  0  0  0  0  0  0  0  0
    6.2942   13.5000    0.0000 F   0  0  0  0  0  0  0  0  0  0  0  0
    7.7942   15.0000    0.0000 C   0  0  0  0  0  0  0  0  0  0  0  0
    6.2942   15.0000    0.0000 F   0  0  0  0  0  0  0  0  0  0  0  0
    9.2942   15.0000    0.0000 F   0  0  0  0  0  0  0  0  0  0  0  0
    7.7942   16.5000    0.0000 C   0  0  0  0  0  0  0  0  0  0  0  0
    7.7942   18.0000    0.0000 F   0  0  0  0  0  0  0  0  0  0  0  0
    9.2942   16.5000    0.0000 F   0  0  0  0  0  0  0  0  0  0  0  0
    6.2942   16.5000    0.0000 F   0  0  0  0  0  0  0  0  0  0  0  0
    3.1471    2.0490    0.0000 O   0  0  0  0  0  0  0  0  0  0  0  0
    3.8971    3.3481    0.0000 C   0  0  0  0  0  0  0  0  0  0  0  0
    3.1471    4.6471    0.0000 C   0  0  0  0  0  0  0  0  0  0  0  0
    4.6471   -0.5490    0.0000 O   0  0  0  0  0  0  0  0  0  0  0  0
    6.1471   -0.5490    0.0000 C   0  0  0  0  0  0  0  0  0  0  0  0
    6.8971   -1.8481    0.0000 C   0  0  0  0  0  0  0  0  0  0  0  0
  1  2  1  0
  2  3  1  0
  3  4  1  0
  4  5  1  0
  5  6  1  0
  6  7  1  0
  7  8  1  0
  8  9  1  0
  9 10  1  0
 10 11  1  0
 10 12  1  0
 10 13  1  0
 13 14  1  0
 13 15  1  0
 13 16  1  0
 16 17  1  0
 16 18  1  0
 16 19  1  0
 19 20  1  0
 19 21  1  0
 19 22  1  0
 22 23  1  0
 22 24  1  0
 22 25  1  0
 25 26  1  0
 25 27  1  0
 25 28  1  0
 28 29  1  0
 28 30  1  0
 28 31  1  0
  4 32  1  0
 32 33  1  0
 33 34  1  0
  4 35  1  0
 35 36  1  0
 36 37  1  0
M  END
$$$$

     RDKit          2D

 47 46  0  0  0  0  0  0  0  0999 V2000
    0.0000    0.0000    0.0000 C   0  0  0  0  0  0  0  0  0  0  0  0
    1.2990    0.7500    0.0000 O   0  0  0  0  0  0  0  0  0  0  0  0
    2.5981   -0.0000    0.0000 Si  0  0  0  0  0  4  0  0  0  0  0  0
    3.8971   -0.7500    0.0000 C   0  0  0  0  0  0  0  0  0  0  0  0
    3.8971   -2.2500    0.0000 C   0  0  0  0  0  0  0  0  0  0  0  0
    5.1962   -3.0000    0.0000 C   0  0  0  0  0  0  0  0  0  0  0  0
    5.1962   -4.5000    0.0000 N   0  0  0  0  0  0  0  0  0  0  0  0
    6.4952   -5.2500    0.0000 C   0  0  0  0  0  0  0  0  0  0  0  0
    7.7942   -4.5000    0.0000 O   0  0  0  0  0  0  0  0  0  0  0  0
    6.4952   -6.7500    0.0000 C   0  0  0  0  0  0  0  0  0  0  0  0
    7.9952   -6.7500    0.0000 F   0  0  0  0  0  0  0  0  0  0  0  0
    4.9952   -6.7500    0.0000 F   0  0  0  0  0  0  0  0  0  0  0  0
    6.4952   -8.2500    0.0000 C   0  0  0  0  0  0  0  0  0  0  0  0
    4.9952   -8.2500    0.0000 F   0  0  0  0  0  0  0  0  0  0  0  0
    7.9952   -8.2500    0.0000 F   0  0  0  0  0  0  0  0  0  0  0  0
    6.4952   -9.7500    0.0000 C   0  0  0  0  0  0  0  0  0  0  0  0
    7.9952   -9.7500    0.0000 F   0  0  0  0  0  0  0  0  0  0  0  0
    4.9952   -9.7500    0.0000 F   0  0  0  0  0  0  0  0  0  0  0  0
    6.4952  -11.2500    0.0000 C   0  0  0  0  0  0  0  0  0  0  0  0
    4.9952  -11.2500    0.0000 F   0  0  0  0  0  0  0  0  0  0  0  0
    7.9952  -11.2500    0.0000 F   0  0  0  0  0  0  0  0  0  0  0  0
    6.4952  -12.7500    0.0000 C   0  0  0  0  0  0  0  0  0  0  0  0
    7.9952  -12.7500    0.0000 F   0  0  0  0  0  0  0  0  0  0  0  0
    4.9952  -12.7500    0.0000 F   0  0  0  0  0  0  0  0  0  0  0  0
    6.4952  -14.2500    0.0000 C   0  0  0  0  0  0  0  0  0  0  0  0
    4.9952  -14.2500    0.0000 F   0  0  0  0  0  0  0  0  0  0  0  0
    7.9952  -14.2500    0.0000 F   0  0  0  0  0  0  0  0  0  0  0  0
    6.4952  -15.7500    0.0000 C   0  0  0  0  0  0  0  0  0  0  0  0
    7.9952  -15.7500    0.0000 F   0  0  0  0  0  0  0  0  0  0  0  0
    4.9952  -15.7500    0.0000 F   0  0  0  0  0  0  0  0  0  0  0  0
    6.4952  -17.2500    0.0000 C   0  0  0  0  0  0  0  0  0  0  0  0
    4.9952  -17.2500    0.0000 F   0  0  0  0  0  0  0  0  0  0  0  0
    7.9952  -17.2500    0.0000 F   0  0  0  0  0  0  0  0  0  0  0  0
    6.4952  -18.7500    0.0000 C   0  0  0  0  0  0  0  0  0  0  0  0
    7.9952  -18.7500    0.0000 F   0  0  0  0  0  0  0  0  0  0  0  0
    4.9952  -18.7500    0.0000 F   0  0  0  0  0  0  0  0  0  0  0  0
    6.4952  -20.2500    0.0000 C   0  0  0  0  0  0  0  0  0  0  0  0
    4.9952  -20.2500    0.0000 F   0  0  0  0  0  0  0  0  0  0  0  0
    7.9952  -20.2500    0.0000 F   0  0  0  0  0  0  0  0  0  0  0  0
    6.4952  -21.7500    0.0000 C   0  0  0  0  0  0  0  0  0  0  0  0
    6.4952  -23.2500    0.0000 F   0  0  0  0  0  0  0  0  0  0  0  0
    7.9952  -21.7500    0.0000 F   0  0  0  0  0  0  0  0  0  0  0  0
    4.9952  -21.7500    0.0000 F   0  0  0  0  0  0  0  0  0  0  0  0
    1.8481   -1.2990    0.0000 O   0  0  0  0  0  0  0  0  0  0  0  0
    2.5981   -2.5981    0.0000 C   0  0  0  0  0  0  0  0  0  0  0  0
    3.3481    1.2990    0.0000 O   0  0  0  0  0  0  0  0  0  0  0  0
    4.8481    1.2990    0.0000 C   0  0  0  0  0  0  0  0  0  0  0  0
  1  2  1  0
  2  3  1  0
  3  4  1  0
  4  5  1  0
  5  6  1  0
  6  7  1  0
  7  8  1  0
  8  9  2  0
  8 10  1  0
 10 11  1  0
 10 12  1  0
 10 13  1  0
 13 14  1  0
 13 15  1  0
 13 16  1  0
 16 17  1  0
 16 18  1  0
 16 19  1  0
 19 20  1  0
 19 21  1  0
 19 22  1  0
 22 23  1  0
 22 24  1  0
 22 25  1  0
 25 26  1  0
 25 27  1  0
 25 28  1  0
 28 29  1  0
 28 30  1  0
 28 31  1  0
 31 32  1  0
 31 33  1  0
 31 34  1  0
 34 35  1  0
 34 36  1  0
 34 37  1  0
 37 38  1  0
 37 39  1  0
 37 40  1  0
 40 41  1  0
 40 42  1  0
 40 43  1  0
  3 44  1  0
 44 45  1  0
  3 46  1  0
 46 47  1  0
M  END
$$$$

     RDKit          2D

 23 22  0  0  0  0  0  0  0  0999 V2000
    0.0000    0.0000    0.0000 C   0  0  0  0  0  0  0  0  0  0  0  0
    1.2990    0.7500    0.0000 C   0  0  0  0  0  0  0  0  0  0  0  0
    2.5981   -0.0000    0.0000 C   0  0  0  0  0  0  0  0  0  0  0  0
    3.8971    0.7500    0.0000 Si  0  0  0  0  0  4  0  0  0  0  0  0
    3.1471    2.0490    0.0000 Cl  0  0  0  0  0  0  0  0  0  0  0  0
    4.6471   -0.5490    0.0000 C   0  0  0  0  0  0  0  0  0  0  0  0
    6.1471   -0.5490    0.0000 C   0  0  0  0  0  0  0  0  0  0  0  0
    6.8971   -1.8481    0.0000 C   0  0  0  0  0  0  0  0  0  0  0  0
    7.6471   -3.1471    0.0000 F   0  0  0  0  0  0  0  0  0  0  0  0
    8.1962   -1.0981    0.0000 F   0  0  0  0  0  0  0  0  0  0  0  0
    5.5981   -2.5981    0.0000 F   0  0  0  0  0  0  0  0  0  0  0  0
    5.1962    1.5000    0.0000 C   0  0  0  0  0  0  0  0  0  0  0  0
    5.1962    3.0000    0.0000 C   0  0  0  0  0  0  0  0  0  0  0  0
    6.4952    3.7500    0.0000 C   0  0  0  0  0  0  0  0  0  0  0  0
    5.7452    5.0490    0.0000 F   0  0  0  0  0  0  0  0  0  0  0  0
    7.2452    2.4510    0.0000 F   0  0  0  0  0  0  0  0  0  0  0  0
    7.7942    4.5000    0.0000 C   0  0  0  0  0  0  0  0  0  0  0  0
    8.5442    3.2010    0.0000 F   0  0  0  0  0  0  0  0  0  0  0  0
    7.0442    5.7990    0.0000 F   0  0  0  0  0  0  0  0  0  0  0  0
    9.0933    5.2500    0.0000 C   0  0  0  0  0  0  0  0  0  0  0  0
   10.3923    6.0000    0.0000 F   0  0  0  0  0  0  0  0  0  0  0  0
    8.3433    6.5490    0.0000 F   0  0  0  0  0  0  0  0  0  0  0  0
    9.8433    3.9510    0.0000 F   0  0  0  0  0  0  0  0  0  0  0  0
  1  2  1  0
  2  3  1  0
  3  4  1  0
  4  5  1  0
  4  6  1  0
  6  7  1  0
  7  8  1  0
  8  9  1  0
  8 10  1  0
  8 11  1  0
  4 12  1  0
 12 13  1  0
 13 14  1  0
 14 15  1  0
 14 16  1  0
 14 17  1  0
 17 18  1  0
 17 19  1  0
 17 20  1  0
 20 21  1  0
 20 22  1  0
 20 23  1  0
M  END
$$$$

     RDKit          2D

 17 16  0  0  0  0  0  0  0  0999 V2000
    0.0000    0.0000    0.0000 C   0  0  0  0  0  0  0  0  0  0  0  0
    1.2990    0.7500    0.0000 O   0  0  0  0  0  0  0  0  0  0  0  0
    2.5981   -0.0000    0.0000 Si  0  0  0  0  0  4  0  0  0  0  0  0
    3.3481    1.2990    0.0000 C   0  0  0  0  0  0  0  0  0  0  0  0
    1.8481   -1.2990    0.0000 C   0  0  0  0  0  0  0  0  0  0  0  0
    3.8971   -0.7500    0.0000 C   0  0  0  0  0  0  0  0  0  0  0  0
    3.8971   -2.2500    0.0000 C   0  0  0  0  0  0  0  0  0  0  0  0
    5.1962   -3.0000    0.0000 C   0  0  0  0  0  0  0  0  0  0  0  0
    4.4462   -4.2990    0.0000 F   0  0  0  0  0  0  0  0  0  0  0  0
    5.9462   -1.7010    0.0000 F   0  0  0  0  0  0  0  0  0  0  0  0
    6.4952   -3.7500    0.0000 C   0  0  0  0  0  0  0  0  0  0  0  0
    7.2452   -2.4510    0.0000 F   0  0  0  0  0  0  0  0  0  0  0  0
    5.7452   -5.0490    0.0000 F   0  0  0  0  0  0  0  0  0  0  0  0
    7.7942   -4.5000    0.0000 C   0  0  0  0  0  0  0  0  0  0  0  0
    9.0933   -5.2500    0.0000 F   0  0  0  0  0  0  0  0  0  0  0  0
    7.0442   -5.7990    0.0000 F   0  0  0  0  0  0  0  0  0  0  0  0
    8.5442   -3.2010    0.0000 F   0  0  0  0  0  0  0  0  0  0  0  0
  1  2  1  0
  2  3  1  0
  3  4  1  0
  3  5  1  0
  3  6  1  0
  6  7  1  0
  7  8  1  0
  8  9  1  0
  8 10  1  0
  8 11  1  0
 11 12  1  0
 11 13  1  0
 11 14  1  0
 14 15  1  0
 14 16  1  0
 14 17  1  0
M  END
$$$$

     RDKit          2D

 27 26  0  0  0  0  0  0  0  0999 V2000
    0.0000    0.0000    0.0000 C   0  0  0  0  0  0  0  0  0  0  0  0
    1.2990    0.7500    0.0000 C   0  0  0  0  0  0  0  0  0  0  0  0
    2.5981   -0.0000    0.0000 C   0  0  0  0  0  0  0  0  0  0  0  0
    3.8971    0.7500    0.0000 Si  0  0  0  0  0  4  0  0  0  0  0  0
    5.1962    1.5000    0.0000 C   0  0  0  0  0  0  0  0  0  0  0  0
    5.1962    3.0000    0.0000 C   0  0  0  0  0  0  0  0  0  0  0  0
    6.4952    3.7500    0.0000 C   0  0  0  0  0  0  0  0  0  0  0  0
    4.6471   -0.5490    0.0000 C   0  0  0  0  0  0  0  0  0  0  0  0
    6.1471   -0.5490    0.0000 C   0  0  0  0  0  0  0  0  0  0  0  0
    6.8971   -1.8481    0.0000 C   0  0  0  0  0  0  0  0  0  0  0  0
    8.1962   -1.0981    0.0000 F   0  0  0  0  0  0  0  0  0  0  0  0
    5.5981   -2.5981    0.0000 F   0  0  0  0  0  0  0  0  0  0  0  0
    7.6471   -3.1471    0.0000 C   0  0  0  0  0  0  0  0  0  0  0  0
    6.3481   -3.8971    0.0000 F   0  0  0  0  0  0  0  0  0  0  0  0
    8.9462   -2.3971    0.0000 F   0  0  0  0  0  0  0  0  0  0  0  0
    8.3971   -4.4462    0.0000 C   0  0  0  0  0  0  0  0  0  0  0  0
    9.6962   -3.6962    0.0000 F   0  0  0  0  0  0  0  0  0  0  0  0
    7.0981   -5.1962    0.0000 F   0  0  0  0  0  0  0  0  0  0  0  0
    9.1471   -5.7452    0.0000 C   0  0  0  0  0  0  0  0  0  0  0  0
    7.8481   -6.4952    0.0000 F   0  0  0  0  0  0  0  0  0  0  0  0
   10.4462   -4.9952    0.0000 F   0  0  0  0  0  0  0  0  0  0  0  0
    9.8971   -7.0442    0.0000 C   0  0  0  0  0  0  0  0  0  0  0  0
   10.6471   -8.3433    0.0000 F   0  0  0  0  0  0  0  0  0  0  0  0
   11.1962   -6.2942    0.0000 F   0  0  0  0  0  0  0  0  0  0  0  0
    8.5981   -7.7942    0.0000 F   0  0  0  0  0  0  0  0  0  0  0  0
    3.1471    2.0490    0.0000 O   0  0  0  0  0  0  0  0  0  0  0  0
    3.8971    3.3481    0.0000 C   0  0  0  0  0  0  0  0  0  0  0  0
  1  2  1  0
  2  3  1  0
  3  4  1  0
  4  5  1  0
  5  6  1  0
  6  7  1  0
  4  8  1  0
  8  9  1  0
  9 10  1  0
 10 11  1  0
 10 12  1  0
 10 13  1  0
 13 14  1  0
 13 15  1  0
 13 16  1  0
 16 17  1  0
 16 18  1  0
 16 19  1  0
 19 20  1  0
 19 21  1  0
 19 22  1  0
 22 23  1  0
 22 24  1  0
 22 25  1  0
  4 26  1  0
 26 27  1  0
M  END
$$$$

     RDKit          2D

 21 20  0  0  0  0  0  0  0  0999 V2000
    0.0000    0.0000    0.0000 C   0  0  0  0  0  0  0  0  0  0  0  0
    1.2990    0.7500    0.0000 C   0  0  0  0  0  0  0  0  0  0  0  0
    2.5981   -0.0000    0.0000 C   0  0  0  0  0  0  0  0  0  0  0  0
    3.8971    0.7500    0.0000 Si  0  0  0  0  0  4  0  0  0  0  0  0
    4.6471   -0.5490    0.0000 C   0  0  0  0  0  0  0  0  0  0  0  0
    6.1471   -0.5490    0.0000 C   0  0  0  0  0  0  0  0  0  0  0  0
    6.8971   -1.8481    0.0000 C   0  0  0  0  0  0  0  0  0  0  0  0
    7.6471   -3.1471    0.0000 F   0  0  0  0  0  0  0  0  0  0  0  0
    8.1962   -1.0981    0.0000 F   0  0  0  0  0  0  0  0  0  0  0  0
    5.5981   -2.5981    0.0000 F   0  0  0  0  0  0  0  0  0  0  0  0
    5.1962    1.5000    0.0000 C   0  0  0  0  0  0  0  0  0  0  0  0
    5.1962    3.0000    0.0000 C   0  0  0  0  0  0  0  0  0  0  0  0
    6.4952    3.7500    0.0000 C   0  0  0  0  0  0  0  0  0  0  0  0
    5.7452    5.0490    0.0000 F   0  0  0  0  0  0  0  0  0  0  0  0
    7.2452    2.4510    0.0000 F   0  0  0  0  0  0  0  0  0  0  0  0
    7.7942    4.5000    0.0000 C   0  0  0  0  0  0  0  0  0  0  0  0
    9.0933    5.2500    0.0000 F   0  0  0  0  0  0  0  0  0  0  0  0
    8.5442    3.2010    0.0000 F   0  0  0  0  0  0  0  0  0  0  0  0
    7.0442    5.7990    0.0000 F   0  0  0  0  0  0  0  0  0  0  0  0
    3.1471    2.0490    0.0000 O   0  0  0  0  0  0  0  0  0  0  0  0
    3.8971    3.3481    0.0000 C   0  0  0  0  0  0  0  0  0  0  0  0
  1  2  1  0
  2  3  1  0
  3  4  1  0
  4  5  1  0
  5  6  1  0
  6  7  1  0
  7  8  1  0
  7  9  1  0
  7 10  1  0
  4 11  1  0
 11 12  1  0
 12 13  1  0
 13 14  1  0
 13 15  1  0
 13 16  1  0
 16 17  1  0
 16 18  1  0
 16 19  1  0
  4 20  1  0
 20 21  1  0
M  END
$$$$

     RDKit          2D

 29 28  0  0  0  0  0  0  0  0999 V2000
   -3.2010    1.8481    0.0000 C   0  0  0  0  0  0  0  0  0  0  0  0
   -3.2010    3.3481    0.0000 N   0  0  0  0  0  0  0  0  0  0  0  0
   -3.2010    4.8481    0.0000 C   0  0  0  0  0  0  0  0  0  0  0  0
   -4.7010    3.3481    0.0000 C   0  0  0  0  0  0  0  0  0  0  0  0
   -1.7010    3.3481    0.0000 C   0  0  0  0  0  0  0  0  0  0  0  0
   -0.9510    4.6471    0.0000 C   0  0  0  0  0  0  0  0  0  0  0  0
    0.5490    4.6471    0.0000 C   0  0  0  0  0  0  0  0  0  0  0  0
    1.2990    5.9462    0.0000 S   0  0  0  0  0  0  0  0  0  0  0  0
    1.9357    5.4664    0.0000 O   0  0  0  0  0  0  0  0  0  0  0  0
    0.0000    6.6962    0.0000 O   0  0  0  0  0  0  0  0  0  0  0  0
    2.0490    7.2452    0.0000 C   0  0  0  0  0  0  0  0  0  0  0  0
    0.7500    7.9952    0.0000 F   0  0  0  0  0  0  0  0  0  0  0  0
    2.7990    8.5442    0.0000 F   0  0  0  0  0  0  0  0  0  0  0  0
    3.3481    6.4952    0.0000 C   0  0  0  0  0  0  0  0  0  0  0  0
    3.0020    5.6799    0.0000 F   0  0  0  0  0  0  0  0  0  0  0  0
    4.0981    7.7942    0.0000 F   0  0  0  0  0  0  0  0  0  0  0  0
    4.6471    5.7452    0.0000 C   0  0  0  0  0  0  0  0  0  0  0  0
    5.3971    7.0442    0.0000 F   0  0  0  0  0  0  0  0  0  0  0  0
    3.8971    4.4462    0.0000 F   0  0  0  0  0  0  0  0  0  0  0  0
    5.9462    4.9952    0.0000 C   0  0  0  0  0  0  0  0  0  0  0  0
    6.6962    6.2942    0.0000 F   0  0  0  0  0  0  0  0  0  0  0  0
    5.1962    3.6962    0.0000 F   0  0  0  0  0  0  0  0  0  0  0  0
    7.2452    4.2452    0.0000 C   0  0  0  0  0  0  0  0  0  0  0  0
    6.4952    2.9462    0.0000 F   0  0  0  0  0  0  0  0  0  0  0  0
    7.9952    5.5442    0.0000 F   0  0  0  0  0  0  0  0  0  0  0  0
    8.5442    3.4952    0.0000 C   0  0  0  0  0  0  0  0  0  0  0  0
    9.8433    2.7452    0.0000 F   0  0  0  0  0  0  0  0  0  0  0  0
    9.2942    4.7942    0.0000 F   0  0  0  0  0  0  0  0  0  0  0  0
    7.7942    2.1962    0.0000 F   0  0  0  0  0  0  0  0  0  0  0  0
  1  2  1  0
  2  3  1  0
  2  4  1  0
  2  5  1  0
  5  6  1  0
  6  7  1  0
  7  8  1  0
  8  9  2  0
  8 10  2  0
  8 11  1  0
 11 12  1  0
 11 13  1  0
 11 14  1  0
 14 15  1  0
 14 16  1  0
 14 17  1  0
 17 18  1  0
 17 19  1  0
 17 20  1  0
 20 21  1  0
 20 22  1  0
 20 23  1  0
 23 24  1  0
 23 25  1  0
 23 26  1  0
 26 27  1  0
 26 28  1  0
 26 29  1  0
M  CHG  1   2   1
M  END
$$$$

     RDKit          2D

 37 35  0  0  0  0  0  0  0  0999 V2000
    0.0000    0.0000    0.0000 C   0  0  0  0  0  0  0  0  0  0  0  0
    1.2990    0.7500    0.0000 C   0  0  0  0  0  0  0  0  0  0  0  0
    2.5981   -0.0000    0.0000 C   0  0  0  0  0  0  0  0  0  0  0  0
    3.8971    0.7500    0.0000 C   0  0  0  0  0  0  0  0  0  0  0  0
    5.1962   -0.0000    0.0000 C   0  0  0  0  0  0  0  0  0  0  0  0
    6.4952    0.7500    0.0000 C   0  0  0  0  0  0  0  0  0  0  0  0
    7.7942   -0.0000    0.0000 C   0  0  0  0  0  0  0  0  0  0  0  0
    9.0933    0.7500    0.0000 C   0  0  0  0  0  0  0  0  0  0  0  0
   10.3923   -0.0000    0.0000 O   0  0  0  0  0  0  0  0  0  0  0  0
   11.6913    0.7500    0.0000 C   0  0  0  0  0  0  0  0  0  0  0  0
   12.9904   -0.0000    0.0000 C   0  0  0  0  0  0  0  0  0  0  0  0
   14.2894    0.7500    0.0000 O   0  0  0  0  0  0  0  0  0  0  0  0
   15.5885   -0.0000    0.0000 C   0  0  0  0  0  0  0  0  0  0  0  0
   15.5885   -1.5000    0.0000 O   0  0  0  0  0  0  0  0  0  0  0  0
   16.8875    0.7500    0.0000 C   0  0  0  0  0  0  0  0  0  0  0  0
   18.1865   -0.0000    0.0000 C   0  0  0  0  0  0  0  0  0  0  0  0
   19.4856    0.7500    0.0000 C   0  0  0  0  0  0  0  0  0  0  0  0
   19.4856    2.2500    0.0000 O   0  0  0  0  0  0  0  0  0  0  0  0
   20.7846   -0.0000    0.0000 O   0  0  0  0  0  0  0  0  0  0  0  0
   22.0836    0.7500    0.0000 C   0  0  0  0  0  0  0  0  0  0  0  0
   23.3827   -0.0000    0.0000 C   0  0  0  0  0  0  0  0  0  0  0  0
   24.1327    1.2990    0.0000 F   0  0  0  0  0  0  0  0  0  0  0  0
   22.6327   -1.2990    0.0000 F   0  0  0  0  0  0  0  0  0  0  0  0
   24.6817   -0.7500    0.0000 C   0  0  0  0  0  0  0  0  0  0  0  0
   23.9317   -2.0490    0.0000 F   0  0  0  0  0  0  0  0  0  0  0  0
   25.4317    0.5490    0.0000 F   0  0  0  0  0  0  0  0  0  0  0  0
   25.9808   -1.5000    0.0000 C   0  0  0  0  0  0  0  0  0  0  0  0
   25.2308   -2.7990    0.0000 F   0  0  0  0  0  0  0  0  0  0  0  0
   26.7308   -0.2010    0.0000 F   0  0  0  0  0  0  0  0  0  0  0  0
   27.2798   -2.2500    0.0000 C   0  0  0  0  0  0  0  0  0  0  0  0
   27.2798   -3.7500    0.0000 F   0  0  0  0  0  0  0  0  0  0  0  0
   28.5788   -1.5000    0.0000 F   0  0  0  0  0  0  0  0  0  0  0  0
   18.1865   -1.5000    0.0000 S   0  0  0  0  0  0  0  0  0  0  0  0
   19.6865   -1.5000    0.0000 O   0  0  0  0  0  0  0  0  0  0  0  0
   16.6865   -1.5000    0.0000 O   0  0  0  0  0  0  0  0  0  0  0  0
   18.1865   -3.0000    0.0000 O   0  0  0  0  0  0  0  0  0  0  0  0
    0.0000    3.2500    0.0000 Na  0  0  0  0  0 15  0  0  0  0  0  0
  1  2  1  0
  2  3  1  0
  3  4  1  0
  4  5  1  0
  5  6  1  0
  6  7  1  0
  7  8  1  0
  8  9  1  0
  9 10  1  0
 10 11  1  0
 11 12  1  0
 12 13  1  0
 13 14  2  0
 13 15  1  0
 15 16  1  0
 16 17  1  0
 17 18  2  0
 17 19  1  0
 19 20  1  0
 20 21  1  0
 21 22  1  0
 21 23  1  0
 21 24  1  0
 24 25  1  0
 24 26  1  0
 24 27  1  0
 27 28  1  0
 27 29  1  0
 27 30  1  0
 30 31  1  0
 30 32  1  0
 16 33  1  0
 33 34  2  0
 33 35  2  0
 33 36  1  0
M  CHG  2  36  -1  37   1
M  END
$$$$

     RDKit          2D

 42 40  0  0  0  0  0  0  0  0999 V2000
    0.0000    0.0000    0.0000 C   0  0  0  0  0  0  0  0  0  0  0  0
    1.2990    0.7500    0.0000 C   0  0  0  0  0  0  0  0  0  0  0  0
    2.5981    1.5000    0.0000 C   0  0  0  0  0  0  0  0  0  0  0  0
    2.0490   -0.5490    0.0000 C   0  0  0  0  0  0  0  0  0  0  0  0
    3.5490   -0.5490    0.0000 S   0  0  0  0  0  0  0  0  0  0  0  0
    3.5490   -2.0490    0.0000 O   0  0  0  0  0  0  0  0  0  0  0  0
    3.5490    0.9510    0.0000 O   0  0  0  0  0  0  0  0  0  0  0  0
    5.0490   -0.5490    0.0000 O   0  0  0  0  0  0  0  0  0  0  0  0
    0.5490    2.0490    0.0000 N   0  0  0  0  0  0  0  0  0  0  0  0
    1.2990    3.3481    0.0000 C   0  0  0  0  0  0  0  0  0  0  0  0
    2.7990    3.3481    0.0000 O   0  0  0  0  0  0  0  0  0  0  0  0
    0.5490    4.6471    0.0000 C   0  0  0  0  0  0  0  0  0  0  0  0
    1.2990    5.9462    0.0000 C   0  0  0  0  0  0  0  0  0  0  0  0
    0.5490    7.2452    0.0000 S   0  0  0  0  0  0  0  0  0  0  0  0
    1.2990    8.5442    0.0000 C   0  0  0  0  0  0  0  0  0  0  0  0
    0.5490    9.8433    0.0000 C   0  0  0  0  0  0  0  0  0  0  0  0
    1.2990   11.1423    0.0000 C   0  0  0  0  0  0  0  0  0  0  0  0
    0.0000   11.8923    0.0000 F   0  0  0  0  0  0  0  0  0  0  0  0
    2.5981   10.3923    0.0000 F   0  0  0  0  0  0  0  0  0  0  0  0
    2.0490   12.4413    0.0000 C   0  0  0  0  0  0  0  0  0  0  0  0
    3.3481   11.6913    0.0000 F   0  0  0  0  0  0  0  0  0  0  0  0
    0.7500   13.1913    0.0000 F   0  0  0  0  0  0  0  0  0  0  0  0
    2.7990   13.7404    0.0000 C   0  0  0  0  0  0  0  0  0  0  0  0
    1.5000   14.4904    0.0000 F   0  0  0  0  0  0  0  0  0  0  0  0
    4.0981   12.9904    0.0000 F   0  0  0  0  0  0  0  0  0  0  0  0
    3.5490   15.0394    0.0000 C   0  0  0  0  0  0  0  0  0  0  0  0
    4.8481   14.2894    0.0000 F   0  0  0  0  0  0  0  0  0  0  0  0
    2.2500   15.7894    0.0000 F   0  0  0  0  0  0  0  0  0  0  0  0
    4.2990   16.3385    0.0000 C   0  0  0  0  0  0  0  0  0  0  0  0
    3.0000   17.0885    0.0000 F   0  0  0  0  0  0  0  0  0  0  0  0
    5.5981   15.5885    0.0000 F   0  0  0  0  0  0  0  0  0  0  0  0
    5.0490   17.6375    0.0000 C   0  0  0  0  0  0  0  0  0  0  0  0
    6.3481   16.8875    0.0000 F   0  0  0  0  0  0  0  0  0  0  0  0
    3.7500   18.3875    0.0000 F   0  0  0  0  0  0  0  0  0  0  0  0
    5.7990   18.9365    0.0000 C   0  0  0  0  0  0  0  0  0  0  0  0
    4.5000   19.6865    0.0000 F   0  0  0  0  0  0  0  0  0  0  0  0
    7.0981   18.1865    0.0000 F   0  0  0  0  0  0  0  0  0  0  0  0
    6.5490   20.2356    0.0000 C   0  0  0  0  0  0  0  0  0  0  0  0
    7.2990   21.5346    0.0000 F   0  0  0  0  0  0  0  0  0  0  0  0
    7.8481   19.4856    0.0000 F   0  0  0  0  0  0  0  0  0  0  0  0
    5.2500   20.9856    0.0000 F   0  0  0  0  0  0  0  0  0  0  0  0
    8.8481    0.0000    0.0000 Na  0  0  0  0  0 15  0  0  0  0  0  0
  1  2  1  0
  2  3  1  0
  2  4  1  0
  4  5  1  0
  5  6  2  0
  5  7  2  0
  5  8  1  0
  2  9  1  0
  9 10  1  0
 10 11  2  0
 10 12  1  0
 12 13  1  0
 13 14  1  0
 14 15  1  0
 15 16  1  0
 16 17  1  0
 17 18  1  0
 17 19  1  0
 17 20  1  0
 20 21  1  0
 20 22  1  0
 20 23  1  0
 23 24  1  0
 23 25  1  0
 23 26  1  0
 26 27  1  0
 26 28  1  0
 26 29  1  0
 29 30  1  0
 29 31  1  0
 29 32  1  0
 32 33  1  0
 32 34  1  0
 32 35  1  0
 35 36  1  0
 35 37  1  0
 35 38  1  0
 38 39  1  0
 38 40  1  0
 38 41  1  0
M  CHG  2   8  -1  42   1
M  END
$$$$

     RDKit          2D

 38 35  0  0  0  0  0  0  0  0999 V2000
    0.0000    0.0000    0.0000 C   0  0  0  0  0  0  0  0  0  0  0  0
    1.2990    0.7500    0.0000 C   0  0  0  0  0  0  0  0  0  0  0  0
    2.5981   -0.0000    0.0000 C   0  0  0  0  0  0  0  0  0  0  0  0
    3.8971    0.7500    0.0000 C   0  0  0  0  0  0  0  0  0  0  0  0
    4.6471   -0.5490    0.0000 F   0  0  0  0  0  0  0  0  0  0  0  0
    3.5511    1.5653    0.0000 F   0  0  0  0  0  0  0  0  0  0  0  0
    5.1962    1.5000    0.0000 C   0  0  0  0  0  0  0  0  0  0  0  0
    5.9462    0.2010    0.0000 F   0  0  0  0  0  0  0  0  0  0  0  0
    4.4462    2.7990    0.0000 F   0  0  0  0  0  0  0  0  0  0  0  0
    6.4952    2.2500    0.0000 C   0  0  0  0  0  0  0  0  0  0  0  0
    7.2452    0.9510    0.0000 F   0  0  0  0  0  0  0  0  0  0  0  0
    5.7452    3.5490    0.0000 F   0  0  0  0  0  0  0  0  0  0  0  0
    7.7942    3.0000    0.0000 C   0  0  0  0  0  0  0  0  0  0  0  0
    8.5442    1.7010    0.0000 F   0  0  0  0  0  0  0  0  0  0  0  0
    7.0442    4.2990    0.0000 F   0  0  0  0  0  0  0  0  0  0  0  0
    9.0933    3.7500    0.0000 C   0  0  0  0  0  0  0  0  0  0  0  0
    8.3433    5.0490    0.0000 F   0  0  0  0  0  0  0  0  0  0  0  0
    9.8433    2.4510    0.0000 F   0  0  0  0  0  0  0  0  0  0  0  0
   10.3923    4.5000    0.0000 C   0  0  0  0  0  0  0  0  0  0  0  0
   10.7384    3.6847    0.0000 F   0  0  0  0  0  0  0  0  0  0  0  0
    9.6423    5.7990    0.0000 F   0  0  0  0  0  0  0  0  0  0  0  0
   11.6913    5.2500    0.0000 C   0  0  0  0  0  0  0  0  0  0  0  0
   10.9413    6.5490    0.0000 F   0  0  0  0  0  0  0  0  0  0  0  0
   12.9904    6.0000    0.0000 C   0  0  0  0  0  0  0  0  0  0  0  0
   14.2894    6.7500    0.0000 F   0  0  0  0  0  0  0  0  0  0  0  0
   13.5234    5.2926    0.0000 F   0  0  0  0  0  0  0  0  0  0  0  0
   12.2404    7.2990    0.0000 F   0  0  0  0  0  0  0  0  0  0  0  0
   12.4413    3.9510    0.0000 C   0  0  0  0  0  0  0  0  0  0  0  0
   13.1913    2.6519    0.0000 F   0  0  0  0  0  0  0  0  0  0  0  0
   13.2567    4.2970    0.0000 F   0  0  0  0  0  0  0  0  0  0  0  0
   11.7340    3.4179    0.0000 F   0  0  0  0  0  0  0  0  0  0  0  0
    1.2990    2.2500    0.0000 O   0  0  0  0  0  0  0  0  0  0  0  0
    2.5981    3.0000    0.0000 P   0  0  0  0  0  0  0  0  0  0  0  0
    1.8481    4.2990    0.0000 O   0  0  0  0  0  0  0  0  0  0  0  0
    3.1311    2.2926    0.0000 O   0  0  0  0  0  0  0  0  0  0  0  0
    3.8971    3.7500    0.0000 O   0  0  0  0  0  0  0  0  0  0  0  0
    0.0000    8.2990    0.0000 N   0  0  0  0  0  0  0  0  0  0  0  0
    0.0000    9.2990    0.0000 N   0  0  0  0  0  0  0  0  0  0  0  0
  1  2  1  0
  2  3  1  0
  3  4  1  0
  4  5  1  0
  4  6  1  0
  4  7  1  0
  7  8  1  0
  7  9  1  0
  7 10  1  0
 10 11  1  0
 10 12  1  0
 10 13  1  0
 13 14  1  0
 13 15  1  0
 13 16  1  0
 16 17  1  0
 16 18  1  0
 16 19  1  0
 19 20  1  0
 19 21  1  0
 19 22  1  0
 22 23  1  0
 22 24  1  0
 24 25  1  0
 24 26  1  0
 24 27  1  0
 22 28  1  0
 28 29  1  0
 28 30  1  0
 28 31  1  0
  2 32  1  0
 32 33  1  0
 33 34  2  0
 33 35  1  0
 33 36  1  0
M  CHG  4  35  -1  36  -1  37   1  38   1
M  END
$$$$

     RDKit          2D

 44 46  0  0  0  0  0  0  0  0999 V2000
   -3.0000  -12.9904    0.0000 O   0  0  0  0  0  0  0  0  0  0  0  0
   -1.5000  -12.9904    0.0000 C   0  0  0  0  0  0  0  0  0  0  0  0
   -0.7500  -14.2894    0.0000 C   0  0  0  0  0  0  0  0  0  0  0  0
   -1.5000  -15.5885    0.0000 C   0  0  0  0  0  0  0  0  0  0  0  0
   -0.7500  -16.8875    0.0000 C   0  0  0  0  0  0  0  0  0  0  0  0
    0.7500  -16.8875    0.0000 C   0  0  0  0  0  0  0  0  0  0  0  0
    1.5000  -15.5885    0.0000 C   0  0  0  0  0  0  0  0  0  0  0  0
    3.0000  -15.5885    0.0000 C   0  0  0  0  0  0  0  0  0  0  0  0
    3.7500  -14.2894    0.0000 C   0  0  0  0  0  0  0  0  0  0  0  0
    3.0000  -12.9904    0.0000 C   0  0  0  0  0  0  0  0  0  0  0  0
    1.5000  -12.9904    0.0000 C   0  0  0  0  0  0  0  0  0  0  0  0
    0.7500  -14.2894    0.0000 C   0  0  0  0  0  0  0  0  0  0  0  0
    0.7500  -11.6913    0.0000 C   0  0  0  0  0  0  0  0  0  0  0  0
    1.5000  -10.3923    0.0000 O   0  0  0  0  0  0  0  0  0  0  0  0
   -0.7500  -11.6913    0.0000 N   0  0  0  0  0  0  0  0  0  0  0  0
   -1.5000  -10.3923    0.0000 O   0  0  0  0  0  0  0  0  0  0  0  0
   -0.7500   -9.0933    0.0000 S   0  0  0  0  0  0  0  0  0  0  0  0
    0.5490   -9.8433    0.0000 O   0  0  0  0  0  0  0  0  0  0  0  0
   -1.4838   -8.7818    0.0000 O   0  0  0  0  0  0  0  0  0  0  0  0
    0.0000   -7.7942    0.0000 C   0  0  0  0  0  0  0  0  0  0  0  0
    1.2990   -8.5442    0.0000 F   0  0  0  0  0  0  0  0  0  0  0  0
    0.7500   -6.4952    0.0000 F   0  0  0  0  0  0  0  0  0  0  0  0
   -1.2990   -7.0442    0.0000 C   0  0  0  0  0  0  0  0  0  0  0  0
   -0.5490   -5.7452    0.0000 F   0  0  0  0  0  0  0  0  0  0  0  0
   -1.8321   -7.7516    0.0000 F   0  0  0  0  0  0  0  0  0  0  0  0
   -2.5981   -6.2942    0.0000 C   0  0  0  0  0  0  0  0  0  0  0  0
   -1.8481   -4.9952    0.0000 F   0  0  0  0  0  0  0  0  0  0  0  0
   -3.3481   -7.5933    0.0000 F   0  0  0  0  0  0  0  0  0  0  0  0
   -3.8971   -5.5442    0.0000 C   0  0  0  0  0  0  0  0  0  0  0  0
   -3.1471   -4.2452    0.0000 F   0  0  0  0  0  0  0  0  0  0  0  0
   -4.6471   -6.8433    0.0000 F   0  0  0  0  0  0  0  0  0  0  0  0
   -5.1962   -4.7942    0.0000 C   0  0  0  0  0  0  0  0  0  0  0  0
   -5.9462   -6.0933    0.0000 F   0  0  0  0  0  0  0  0  0  0  0  0
   -4.4462   -3.4952    0.0000 F   0  0  0  0  0  0  0  0  0  0  0  0
   -6.4952   -4.0442    0.0000 C   0  0  0  0  0  0  0  0  0  0  0  0
   -5.7452   -2.7452    0.0000 F   0  0  0  0  0  0  0  0  0  0  0  0
   -7.2452   -5.3433    0.0000 F   0  0  0  0  0  0  0  0  0  0  0  0
   -7.7942   -3.2942    0.0000 C   0  0  0  0  0  0  0  0  0  0  0  0
   -8.5442   -4.5933    0.0000 F   0  0  0  0  0  0  0  0  0  0  0  0
   -7.0442   -1.9952    0.0000 F   0  0  0  0  0  0  0  0  0  0  0  0
   -9.0933   -2.5442    0.0000 C   0  0  0  0  0  0  0  0  0  0  0  0
  -10.3923   -1.7942    0.0000 F   0  0  0  0  0  0  0  0  0  0  0  0
   -8.3433   -1.2452    0.0000 F   0  0  0  0  0  0  0  0  0  0  0  0
   -9.8433   -3.8433    0.0000 F   0  0  0  0  0  0  0  0  0  0  0  0
  1  2  2  0
  2  3  1  0
  3  4  1  0
  4  5  2  0
  5  6  1  0
  6  7  2  0
  7  8  1  0
  8  9  2  0
  9 10  1  0
 10 11  2  0
 11 12  1  0
 11 13  1  0
 13 14  2  0
 13 15  1  0
 15 16  1  0
 16 17  1  0
 17 18  2  0
 17 19  2  0
 17 20  1  0
 20 21  1  0
 20 22  1  0
 20 23  1  0
 23 24  1  0
 23 25  1  0
 23 26  1  0
 26 27  1  0
 26 28  1  0
 26 29  1  0
 29 30  1  0
 29 31  1  0
 29 32  1  0
 32 33  1  0
 32 34  1  0
 32 35  1  0
 35 36  1  0
 35 37  1  0
 35 38  1  0
 38 39  1  0
 38 40  1  0
 38 41  1  0
 41 42  1  0
 41 43  1  0
 41 44  1  0
 15  2  1  0
 12  3  2  0
 12  7  1  0
M  END
$$$$

     RDKit          2D

 37 40  0  0  0  0  0  0  0  0999 V2000
   -1.4418   -9.0771    0.0000 O   0  0  0  0  0  0  0  0  0  0  0  0
   -1.7537   -7.6099    0.0000 C   0  0  0  0  0  0  0  0  0  0  0  0
   -0.7500   -6.4952    0.0000 C   0  0  0  0  0  0  0  0  0  0  0  0
    0.7500   -6.4952    0.0000 C   0  0  0  0  0  0  0  0  0  0  0  0
    1.5000   -5.1962    0.0000 C   0  0  0  0  0  0  0  0  0  0  0  0
    0.7500   -3.8971    0.0000 C   0  0  0  0  0  0  0  0  0  0  0  0
    1.5000   -2.5981    0.0000 C   0  0  0  0  0  0  0  0  0  0  0  0
    3.0000   -2.5981    0.0000 O   0  0  0  0  0  0  0  0  0  0  0  0
    0.7500   -1.2990    0.0000 C   0  0  0  0  0  0  0  0  0  0  0  0
    1.5000    0.0000    0.0000 C   0  0  0  0  0  0  0  0  0  0  0  0
    0.7500    1.2990    0.0000 C   0  0  0  0  0  0  0  0  0  0  0  0
   -0.7500    1.2990    0.0000 C   0  0  0  0  0  0  0  0  0  0  0  0
   -1.5000    0.0000    0.0000 C   0  0  0  0  0  0  0  0  0  0  0  0
   -0.7500   -1.2990    0.0000 C   0  0  0  0  0  0  0  0  0  0  0  0
   -1.5000   -2.5981    0.0000 S   0  0  0  0  0  0  0  0  0  0  0  0
   -0.7500   -3.8971    0.0000 C   0  0  0  0  0  0  0  0  0  0  0  0
   -1.5000   -5.1962    0.0000 C   0  0  0  0  0  0  0  0  0  0  0  0
   -2.9672   -5.5080    0.0000 C   0  0  0  0  0  0  0  0  0  0  0  0
   -4.0819   -4.5043    0.0000 O   0  0  0  0  0  0  0  0  0  0  0  0
   -3.1240   -6.9998    0.0000 N   0  0  0  0  0  0  0  0  0  0  0  0
   -4.4231   -7.7498    0.0000 O   0  0  0  0  0  0  0  0  0  0  0  0
   -5.7221   -6.9998    0.0000 S   0  0  0  0  0  0  0  0  0  0  0  0
   -4.9721   -5.7008    0.0000 O   0  0  0  0  0  0  0  0  0  0  0  0
   -6.0335   -7.7336    0.0000 O   0  0  0  0  0  0  0  0  0  0  0  0
   -7.0211   -6.2498    0.0000 C   0  0  0  0  0  0  0  0  0  0  0  0
   -6.2711   -4.9508    0.0000 F   0  0  0  0  0  0  0  0  0  0  0  0
   -8.3202   -5.4998    0.0000 F   0  0  0  0  0  0  0  0  0  0  0  0
   -7.7711   -7.5488    0.0000 C   0  0  0  0  0  0  0  0  0  0  0  0
   -7.0638   -8.0819    0.0000 F   0  0  0  0  0  0  0  0  0  0  0  0
   -9.0702   -6.7988    0.0000 F   0  0  0  0  0  0  0  0  0  0  0  0
   -8.5211   -8.8479    0.0000 C   0  0  0  0  0  0  0  0  0  0  0  0
   -9.8202   -8.0979    0.0000 F   0  0  0  0  0  0  0  0  0  0  0  0
   -7.2221   -9.5979    0.0000 F   0  0  0  0  0  0  0  0  0  0  0  0
   -9.2711  -10.1469    0.0000 C   0  0  0  0  0  0  0  0  0  0  0  0
  -10.0211  -11.4460    0.0000 F   0  0  0  0  0  0  0  0  0  0  0  0
  -10.5702   -9.3969    0.0000 F   0  0  0  0  0  0  0  0  0  0  0  0
   -7.9721  -10.8969    0.0000 F   0  0  0  0  0  0  0  0  0  0  0  0
  1  2  2  0
  2  3  1  0
  3  4  2  0
  4  5  1  0
  5  6  2  0
  6  7  1  0
  7  8  2  0
  7  9  1  0
  9 10  2  0
 10 11  1  0
 11 12  2  0
 12 13  1  0
 13 14  2  0
 14 15  1  0
 15 16  1  0
 16 17  2  0
 17 18  1  0
 18 19  2  0
 18 20  1  0
 20 21  1  0
 21 22  1  0
 22 23  2  0
 22 24  2  0
 22 25  1  0
 25 26  1  0
 25 27  1  0
 25 28  1  0
 28 29  1  0
 28 30  1  0
 28 31  1  0
 31 32  1  0
 31 33  1  0
 31 34  1  0
 34 35  1  0
 34 36  1  0
 34 37  1  0
 20  2  1  0
 17  3  1  0
 16  6  1  0
 14  9  1  0
M  END
$$$$

     RDKit          2D

 71 68  0  0  0  0  0  0  0  0999 V2000
    0.0000    0.0000    0.0000 C   0  0  0  0  0  0  0  0  0  0  0  0
    1.2990    0.7500    0.0000 C   0  0  0  0  0  0  0  0  0  0  0  0
    2.5981    1.5000    0.0000 C   0  0  0  0  0  0  0  0  0  0  0  0
    2.0490   -0.5490    0.0000 C   0  0  0  0  0  0  0  0  0  0  0  0
    3.5490   -0.5490    0.0000 S   0  0  0  0  0  0  0  0  0  0  0  0
    3.5490   -2.0490    0.0000 O   0  0  0  0  0  0  0  0  0  0  0  0
    3.5490    0.9510    0.0000 O   0  0  0  0  0  0  0  0  0  0  0  0
    5.0490   -0.5490    0.0000 O   0  0  0  0  0  0  0  0  0  0  0  0
    0.5490    2.0490    0.0000 N   0  0  0  0  0  0  0  0  0  0  0  0
    1.2990    3.3481    0.0000 C   0  0  0  0  0  0  0  0  0  0  0  0
    2.7990    3.3481    0.0000 O   0  0  0  0  0  0  0  0  0  0  0  0
    0.5490    4.6471    0.0000 C   0  0  0  0  0  0  0  0  0  0  0  0
    1.2990    5.9462    0.0000 C   0  0  0  0  0  0  0  0  0  0  0  0
    0.5490    7.2452    0.0000 S   0  0  0  0  0  0  0  0  0  0  0  0
    1.2990    8.5442    0.0000 C   0  0  0  0  0  0  0  0  0  0  0  0
    0.5490    9.8433    0.0000 C   0  0  0  0  0  0  0  0  0  0  0  0
    1.2990   11.1423    0.0000 C   0  0  0  0  0  0  0  0  0  0  0  0
    0.0000   11.8923    0.0000 F   0  0  0  0  0  0  0  0  0  0  0  0
    2.5981   10.3923    0.0000 F   0  0  0  0  0  0  0  0  0  0  0  0
    2.0490   12.4413    0.0000 C   0  0  0  0  0  0  0  0  0  0  0  0
    3.3481   11.6913    0.0000 F   0  0  0  0  0  0  0  0  0  0  0  0
    0.7500   13.1913    0.0000 F   0  0  0  0  0  0  0  0  0  0  0  0
    2.7990   13.7404    0.0000 C   0  0  0  0  0  0  0  0  0  0  0  0
    1.5000   14.4904    0.0000 F   0  0  0  0  0  0  0  0  0  0  0  0
    4.0981   12.9904    0.0000 F   0  0  0  0  0  0  0  0  0  0  0  0
    3.5490   15.0394    0.0000 C   0  0  0  0  0  0  0  0  0  0  0  0
    4.8481   14.2894    0.0000 F   0  0  0  0  0  0  0  0  0  0  0  0
    2.2500   15.7894    0.0000 F   0  0  0  0  0  0  0  0  0  0  0  0
    4.2990   16.3385    0.0000 C   0  0  0  0  0  0  0  0  0  0  0  0
    3.0000   17.0885    0.0000 F   0  0  0  0  0  0  0  0  0  0  0  0
    5.5981   15.5885    0.0000 F   0  0  0  0  0  0  0  0  0  0  0  0
    5.0490   17.6375    0.0000 C   0  0  0  0  0  0  0  0  0  0  0  0
    5.7990   18.9365    0.0000 F   0  0  0  0  0  0  0  0  0  0  0  0
    6.3481   16.8875    0.0000 F   0  0  0  0  0  0  0  0  0  0  0  0
    3.7500   18.3875    0.0000 F   0  0  0  0  0  0  0  0  0  0  0  0
    7.3481    0.0000    0.0000 C   0  0  0  0  0  0  0  0  0  0  0  0
    8.6471    0.7500    0.0000 C   0  0  0  0  0  0  0  0  0  0  0  0
    9.9462    1.5000    0.0000 C   0  0  0  0  0  0  0  0  0  0  0  0
    9.3971   -0.5490    0.0000 C   0  0  0  0  0  0  0  0  0  0  0  0
   10.8971   -0.5490    0.0000 S   0  0  0  0  0  0  0  0  0  0  0  0
   10.8971   -2.0490    0.0000 O   0  0  0  0  0  0  0  0  0  0  0  0
   10.8971    0.9510    0.0000 O   0  0  0  0  0  0  0  0  0  0  0  0
   12.3971   -0.5490    0.0000 O   0  0  0  0  0  0  0  0  0  0  0  0
    7.8971    2.0490    0.0000 N   0  0  0  0  0  0  0  0  0  0  0  0
    8.6471    3.3481    0.0000 C   0  0  0  0  0  0  0  0  0  0  0  0
   10.1471    3.3481    0.0000 O   0  0  0  0  0  0  0  0  0  0  0  0
    7.8971    4.6471    0.0000 C   0  0  0  0  0  0  0  0  0  0  0  0
    8.6471    5.9462    0.0000 C   0  0  0  0  0  0  0  0  0  0  0  0
    7.8971    7.2452    0.0000 S   0  0  0  0  0  0  0  0  0  0  0  0
    8.6471    8.5442    0.0000 C   0  0  0  0  0  0  0  0  0  0  0  0
    7.8971    9.8433    0.0000 C   0  0  0  0  0  0  0  0  0  0  0  0
    8.6471   11.1423    0.0000 C   0  0  0  0  0  0  0  0  0  0  0  0
    7.3481   11.8923    0.0000 F   0  0  0  0  0  0  0  0  0  0  0  0
    9.9462   10.3923    0.0000 F   0  0  0  0  0  0  0  0  0  0  0  0
    9.3971   12.4413    0.0000 C   0  0  0  0  0  0  0  0  0  0  0  0
   10.6962   11.6913    0.0000 F   0  0  0  0  0  0  0  0  0  0  0  0
    8.0981   13.1913    0.0000 F   0  0  0  0  0  0  0  0  0  0  0  0
   10.1471   13.7404    0.0000 C   0  0  0  0  0  0  0  0  0  0  0  0
    8.8481   14.4904    0.0000 F   0  0  0  0  0  0  0  0  0  0  0  0
   11.4462   12.9904    0.0000 F   0  0  0  0  0  0  0  0  0  0  0  0
   10.8971   15.0394    0.0000 C   0  0  0  0  0  0  0  0  0  0  0  0
   12.1962   14.2894    0.0000 F   0  0  0  0  0  0  0  0  0  0  0  0
    9.5981   15.7894    0.0000 F   0  0  0  0  0  0  0  0  0  0  0  0
   11.6471   16.3385    0.0000 C   0  0  0  0  0  0  0  0  0  0  0  0
   10.3481   17.0885    0.0000 F   0  0  0  0  0  0  0  0  0  0  0  0
   12.9462   15.5885    0.0000 F   0  0  0  0  0  0  0  0  0  0  0  0
   12.3971   17.6375    0.0000 C   0  0  0  0  0  0  0  0  0  0  0  0
   13.1471   18.9365    0.0000 F   0  0  0  0  0  0  0  0  0  0  0  0
   13.6962   16.8875    0.0000 F   0  0  0  0  0  0  0  0  0  0  0  0
   11.0981   18.3875    0.0000 F   0  0  0  0  0  0  0  0  0  0  0  0
   14.6962    0.0000    0.0000 Mg  0  0  0  0  0 15  0  0  0  0  0  0
  1  2  1  0
  2  3  1  0
  2  4  1  0
  4  5  1  0
  5  6  2  0
  5  7  2  0
  5  8  1  0
  2  9  1  0
  9 10  1  0
 10 11  2  0
 10 12  1  0
 12 13  1  0
 13 14  1  0
 14 15  1  0
 15 16  1  0
 16 17  1  0
 17 18  1  0
 17 19  1  0
 17 20  1  0
 20 21  1  0
 20 22  1  0
 20 23  1  0
 23 24  1  0
 23 25  1  0
 23 26  1  0
 26 27  1  0
 26 28  1  0
 26 29  1  0
 29 30  1  0
 29 31  1  0
 29 32  1  0
 32 33  1  0
 32 34  1  0
 32 35  1  0
 36 37  1  0
 37 38  1  0
 37 39  1  0
 39 40  1  0
 40 41  2  0
 40 42  2  0
 40 43  1  0
 37 44  1  0
 44 45  1  0
 45 46  2  0
 45 47  1  0
 47 48  1  0
 48 49  1  0
 49 50  1  0
 50 51  1  0
 51 52  1  0
 52 53  1  0
 52 54  1  0
 52 55  1  0
 55 56  1  0
 55 57  1  0
 55 58  1  0
 58 59  1  0
 58 60  1  0
 58 61  1  0
 61 62  1  0
 61 63  1  0
 61 64  1  0
 64 65  1  0
 64 66  1  0
 64 67  1  0
 67 68  1  0
 67 69  1  0
 67 70  1  0
M  CHG  3   8  -1  43  -1  71   2
M  END
$$$$

     RDKit          2D

 39 38  0  0  0  0  0  0  0  0999 V2000
    0.0000    0.0000    0.0000 C   0  0  0  0  0  0  0  0  0  0  0  0
    1.2990    0.7500    0.0000 N   0  0  0  0  0  0  0  0  0  0  0  0
    2.5981    1.5000    0.0000 C   0  0  0  0  0  0  0  0  0  0  0  0
    2.0490   -0.5490    0.0000 C   0  0  0  0  0  0  0  0  0  0  0  0
    0.5490    2.0490    0.0000 C   0  0  0  0  0  0  0  0  0  0  0  0
    1.2990    3.3481    0.0000 C   0  0  0  0  0  0  0  0  0  0  0  0
    0.5490    4.6471    0.0000 C   0  0  0  0  0  0  0  0  0  0  0  0
    1.2990    5.9462    0.0000 N   0  0  0  0  0  0  0  0  0  0  0  0
    0.5490    7.2452    0.0000 C   0  0  0  0  0  0  0  0  0  0  0  0
   -0.9510    7.2452    0.0000 O   0  0  0  0  0  0  0  0  0  0  0  0
    1.2990    8.5442    0.0000 C   0  0  0  0  0  0  0  0  0  0  0  0
    0.5490    9.8433    0.0000 S   0  0  0  0  0  0  0  0  0  0  0  0
    1.2990   11.1423    0.0000 C   0  0  0  0  0  0  0  0  0  0  0  0
    0.5490   12.4413    0.0000 C   0  0  0  0  0  0  0  0  0  0  0  0
    1.2990   13.7404    0.0000 C   0  0  0  0  0  0  0  0  0  0  0  0
    0.0000   14.4904    0.0000 F   0  0  0  0  0  0  0  0  0  0  0  0
    2.5981   12.9904    0.0000 F   0  0  0  0  0  0  0  0  0  0  0  0
    2.0490   15.0394    0.0000 C   0  0  0  0  0  0  0  0  0  0  0  0
    3.3481   14.2894    0.0000 F   0  0  0  0  0  0  0  0  0  0  0  0
    0.7500   15.7894    0.0000 F   0  0  0  0  0  0  0  0  0  0  0  0
    2.7990   16.3385    0.0000 C   0  0  0  0  0  0  0  0  0  0  0  0
    1.5000   17.0885    0.0000 F   0  0  0  0  0  0  0  0  0  0  0  0
    4.0981   15.5885    0.0000 F   0  0  0  0  0  0  0  0  0  0  0  0
    3.5490   17.6375    0.0000 C   0  0  0  0  0  0  0  0  0  0  0  0
    4.8481   16.8875    0.0000 F   0  0  0  0  0  0  0  0  0  0  0  0
    2.2500   18.3875    0.0000 F   0  0  0  0  0  0  0  0  0  0  0  0
    4.2990   18.9365    0.0000 C   0  0  0  0  0  0  0  0  0  0  0  0
    3.0000   19.6865    0.0000 F   0  0  0  0  0  0  0  0  0  0  0  0
    5.5981   18.1865    0.0000 F   0  0  0  0  0  0  0  0  0  0  0  0
    5.0490   20.2356    0.0000 C   0  0  0  0  0  0  0  0  0  0  0  0
    6.3481   19.4856    0.0000 F   0  0  0  0  0  0  0  0  0  0  0  0
    3.7500   20.9856    0.0000 F   0  0  0  0  0  0  0  0  0  0  0  0
    5.7990   21.5346    0.0000 C   0  0  0  0  0  0  0  0  0  0  0  0
    4.5000   22.2846    0.0000 F   0  0  0  0  0  0  0  0  0  0  0  0
    7.0981   20.7846    0.0000 F   0  0  0  0  0  0  0  0  0  0  0  0
    6.5490   22.8336    0.0000 C   0  0  0  0  0  0  0  0  0  0  0  0
    7.2990   24.1327    0.0000 F   0  0  0  0  0  0  0  0  0  0  0  0
    7.8481   22.0836    0.0000 F   0  0  0  0  0  0  0  0  0  0  0  0
    5.2500   23.5836    0.0000 F   0  0  0  0  0  0  0  0  0  0  0  0
  1  2  1  0
  2  3  1  0
  2  4  1  0
  2  5  1  0
  5  6  1  0
  6  7  1  0
  7  8  1  0
  8  9  1  0
  9 10  2  0
  9 11  1  0
 11 12  1  0
 12 13  1  0
 13 14  1  0
 14 15  1  0
 15 16  1  0
 15 17  1  0
 15 18  1  0
 18 19  1  0
 18 20  1  0
 18 21  1  0
 21 22  1  0
 21 23  1  0
 21 24  1  0
 24 25  1  0
 24 26  1  0
 24 27  1  0
 27 28  1  0
 27 29  1  0
 27 30  1  0
 30 31  1  0
 30 32  1  0
 30 33  1  0
 33 34  1  0
 33 35  1  0
 33 36  1  0
 36 37  1  0
 36 38  1  0
 36 39  1  0
M  CHG  1   2   1
M  END
$$$$

     RDKit          2D

 30 28  0  0  0  0  0  0  0  0999 V2000
    0.0000    0.0000    0.0000 C   0  0  0  0  0  0  0  0  0  0  0  0
    1.2990    0.7500    0.0000 C   0  0  0  0  0  0  0  0  0  0  0  0
    2.5981   -0.0000    0.0000 N   0  0  0  0  0  0  0  0  0  0  0  0
    3.8971    0.7500    0.0000 C   0  0  0  0  0  0  0  0  0  0  0  0
    5.1962   -0.0000    0.0000 C   0  0  0  0  0  0  0  0  0  0  0  0
    2.5981   -1.5000    0.0000 C   0  0  0  0  0  0  0  0  0  0  0  0
    3.8971   -2.2500    0.0000 C   0  0  0  0  0  0  0  0  0  0  0  0
   -1.5000    3.2500    0.0000 O   0  0  0  0  0  0  0  0  0  0  0  0
    0.0000    3.2500    0.0000 S   0  0  0  0  0  0  0  0  0  0  0  0
    0.7912    3.1528    0.0000 O   0  0  0  0  0  0  0  0  0  0  0  0
   -0.0000    1.7500    0.0000 O   0  0  0  0  0  0  0  0  0  0  0  0
    0.0000    4.7500    0.0000 C   0  0  0  0  0  0  0  0  0  0  0  0
   -1.5000    4.7500    0.0000 F   0  0  0  0  0  0  0  0  0  0  0  0
    0.0000    6.2500    0.0000 F   0  0  0  0  0  0  0  0  0  0  0  0
    1.5000    4.7500    0.0000 C   0  0  0  0  0  0  0  0  0  0  0  0
    1.5000    6.2500    0.0000 F   0  0  0  0  0  0  0  0  0  0  0  0
    1.6080    3.8709    0.0000 F   0  0  0  0  0  0  0  0  0  0  0  0
    3.0000    4.7500    0.0000 C   0  0  0  0  0  0  0  0  0  0  0  0
    3.0000    3.2500    0.0000 F   0  0  0  0  0  0  0  0  0  0  0  0
    3.0000    6.2500    0.0000 F   0  0  0  0  0  0  0  0  0  0  0  0
    4.5000    4.7500    0.0000 C   0  0  0  0  0  0  0  0  0  0  0  0
    4.5000    3.2500    0.0000 F   0  0  0  0  0  0  0  0  0  0  0  0
    4.5000    6.2500    0.0000 F   0  0  0  0  0  0  0  0  0  0  0  0
    6.0000    4.7500    0.0000 C   0  0  0  0  0  0  0  0  0  0  0  0
    6.0000    6.2500    0.0000 F   0  0  0  0  0  0  0  0  0  0  0  0
    6.0000    3.2500    0.0000 F   0  0  0  0  0  0  0  0  0  0  0  0
    7.5000    4.7500    0.0000 C   0  0  0  0  0  0  0  0  0  0  0  0
    9.0000    4.7500    0.0000 F   0  0  0  0  0  0  0  0  0  0  0  0
    7.5000    3.2500    0.0000 F   0  0  0  0  0  0  0  0  0  0  0  0
    7.5000    6.2500    0.0000 F   0  0  0  0  0  0  0  0  0  0  0  0
  1  2  1  0
  2  3  1  0
  3  4  1  0
  4  5  1  0
  3  6  1  0
  6  7  1  0
  8  9  2  0
  9 10  2  0
  9 11  1  0
  9 12  1  0
 12 13  1  0
 12 14  1  0
 12 15  1  0
 15 16  1  0
 15 17  1  0
 15 18  1  0
 18 19  1  0
 18 20  1  0
 18 21  1  0
 21 22  1  0
 21 23  1  0
 21 24  1  0
 24 25  1  0
 24 26  1  0
 24 27  1  0
 27 28  1  0
 27 29  1  0
 27 30  1  0
M  CHG  2   3   1  11  -1
M  END
$$$$

     RDKit          2D

 42 44  0  0  0  0  0  0  0  0999 V2000
    1.4680   -9.2426    0.0000 O   0  0  0  0  0  0  0  0  0  0  0  0
    0.5864  -10.4561    0.0000 S   0  0  0  0  0  0  0  0  0  0  0  0
    0.0427  -11.0391    0.0000 O   0  0  0  0  0  0  0  0  0  0  0  0
   -0.6272   -9.5744    0.0000 O   0  0  0  0  0  0  0  0  0  0  0  0
   -0.4704   -8.0826    0.0000 N   0  0  0  0  0  0  0  0  0  0  0  0
   -1.6839   -7.2010    0.0000 C   0  0  0  0  0  0  0  0  0  0  0  0
   -1.5271   -5.7092    0.0000 C   0  0  0  0  0  0  0  0  0  0  0  0
   -2.7406   -4.8275    0.0000 C   0  0  0  0  0  0  0  0  0  0  0  0
   -2.5838   -3.3357    0.0000 C   0  0  0  0  0  0  0  0  0  0  0  0
   -1.2135   -2.7256    0.0000 C   0  0  0  0  0  0  0  0  0  0  0  0
    0.0000   -3.6073    0.0000 C   0  0  0  0  0  0  0  0  0  0  0  0
   -0.1568   -5.0991    0.0000 C   0  0  0  0  0  0  0  0  0  0  0  0
    1.2135   -2.7256    0.0000 C   0  0  0  0  0  0  0  0  0  0  0  0
    0.7500   -1.2990    0.0000 C   0  0  0  0  0  0  0  0  0  0  0  0
    1.5000    0.0000    0.0000 C   0  0  0  0  0  0  0  0  0  0  0  0
    0.7500    1.2990    0.0000 C   0  0  0  0  0  0  0  0  0  0  0  0
   -0.7500    1.2990    0.0000 C   0  0  0  0  0  0  0  0  0  0  0  0
   -1.5000    0.0000    0.0000 C   0  0  0  0  0  0  0  0  0  0  0  0
   -0.7500   -1.2990    0.0000 C   0  0  0  0  0  0  0  0  0  0  0  0
   -3.0542   -7.8111    0.0000 C   0  0  0  0  0  0  0  0  0  0  0  0
   -2.4441   -9.1814    0.0000 F   0  0  0  0  0  0  0  0  0  0  0  0
   -3.6643   -6.4408    0.0000 F   0  0  0  0  0  0  0  0  0  0  0  0
   -4.4245   -8.4212    0.0000 C   0  0  0  0  0  0  0  0  0  0  0  0
   -5.0346   -7.0509    0.0000 F   0  0  0  0  0  0  0  0  0  0  0  0
   -3.8144   -9.7915    0.0000 F   0  0  0  0  0  0  0  0  0  0  0  0
   -5.7949   -9.0313    0.0000 C   0  0  0  0  0  0  0  0  0  0  0  0
   -7.1652   -9.6414    0.0000 F   0  0  0  0  0  0  0  0  0  0  0  0
   -5.1848  -10.4016    0.0000 F   0  0  0  0  0  0  0  0  0  0  0  0
   -6.4050   -7.6610    0.0000 F   0  0  0  0  0  0  0  0  0  0  0  0
    1.7999  -11.3378    0.0000 C   0  0  0  0  0  0  0  0  0  0  0  0
    2.6816  -10.1243    0.0000 F   0  0  0  0  0  0  0  0  0  0  0  0
    3.0134  -12.2195    0.0000 F   0  0  0  0  0  0  0  0  0  0  0  0
    0.9182  -12.5513    0.0000 C   0  0  0  0  0  0  0  0  0  0  0  0
    0.1435  -12.1219    0.0000 F   0  0  0  0  0  0  0  0  0  0  0  0
    2.1317  -13.4330    0.0000 F   0  0  0  0  0  0  0  0  0  0  0  0
    0.0365  -13.7648    0.0000 C   0  0  0  0  0  0  0  0  0  0  0  0
    1.2500  -14.6465    0.0000 F   0  0  0  0  0  0  0  0  0  0  0  0
   -1.1770  -12.8832    0.0000 F   0  0  0  0  0  0  0  0  0  0  0  0
   -0.8452  -14.9784    0.0000 C   0  0  0  0  0  0  0  0  0  0  0  0
   -1.7268  -16.1919    0.0000 F   0  0  0  0  0  0  0  0  0  0  0  0
   -2.0587  -14.0967    0.0000 F   0  0  0  0  0  0  0  0  0  0  0  0
    0.3684  -15.8600    0.0000 F   0  0  0  0  0  0  0  0  0  0  0  0
  1  2  2  0
  2  3  2  0
  2  4  1  0
  4  5  1  0
  5  6  2  3
  6  7  1  0
  7  8  2  0
  8  9  1  0
  9 10  2  0
 10 11  1  0
 11 12  2  0
 11 13  1  0
 13 14  1  0
 14 15  2  0
 15 16  1  0
 16 17  2  0
 17 18  1  0
 18 19  2  0
  6 20  1  0
 20 21  1  0
 20 22  1  0
 20 23  1  0
 23 24  1  0
 23 25  1  0
 23 26  1  0
 26 27  1  0
 26 28  1  0
 26 29  1  0
  2 30  1  0
 30 31  1  0
 30 32  1  0
 30 33  1  0
 33 34  1  0
 33 35  1  0
 33 36  1  0
 36 37  1  0
 36 38  1  0
 36 39  1  0
 39 40  1  0
 39 41  1  0
 39 42  1  0
 12  7  1  0
 19 14  1  0
 19 10  1  0
M  END
$$$$

     RDKit          2D

 29 29  0  0  0  0  0  0  0  0999 V2000
    3.7500    1.2990    0.0000 O   0  0  0  0  0  0  0  0  0  0  0  0
    3.0000    0.0000    0.0000 C   0  0  0  0  0  0  0  0  0  0  0  0
    3.7500   -1.2990    0.0000 O   0  0  0  0  0  0  0  0  0  0  0  0
    1.5000    0.0000    0.0000 C   0  0  0  0  0  0  0  0  0  0  0  0
    0.7500   -1.2990    0.0000 C   0  0  0  0  0  0  0  0  0  0  0  0
   -0.7500   -1.2990    0.0000 C   0  0  0  0  0  0  0  0  0  0  0  0
   -1.5000    0.0000    0.0000 C   0  0  0  0  0  0  0  0  0  0  0  0
   -3.0000    0.0000    0.0000 O   0  0  0  0  0  0  0  0  0  0  0  0
   -3.7500    1.2990    0.0000 C   0  0  0  0  0  0  0  0  0  0  0  0
   -2.4510    2.0490    0.0000 F   0  0  0  0  0  0  0  0  0  0  0  0
   -5.0490    0.5490    0.0000 F   0  0  0  0  0  0  0  0  0  0  0  0
   -4.5000    2.5981    0.0000 C   0  0  0  0  0  0  0  0  0  0  0  0
   -6.0000    2.5981    0.0000 F   0  0  0  0  0  0  0  0  0  0  0  0
   -3.7500    3.8971    0.0000 C   0  0  0  0  0  0  0  0  0  0  0  0
   -3.0000    5.1962    0.0000 F   0  0  0  0  0  0  0  0  0  0  0  0
   -5.0490    4.6471    0.0000 F   0  0  0  0  0  0  0  0  0  0  0  0
   -2.4510    3.1471    0.0000 F   0  0  0  0  0  0  0  0  0  0  0  0
   -0.7500    1.2990    0.0000 C   0  0  0  0  0  0  0  0  0  0  0  0
    0.7500    1.2990    0.0000 C   0  0  0  0  0  0  0  0  0  0  0  0
    1.5000    2.5981    0.0000 O   0  0  0  0  0  0  0  0  0  0  0  0
    0.7500    3.8971    0.0000 C   0  0  0  0  0  0  0  0  0  0  0  0
   -0.5490    3.1471    0.0000 F   0  0  0  0  0  0  0  0  0  0  0  0
    2.0490    4.6471    0.0000 F   0  0  0  0  0  0  0  0  0  0  0  0
    0.0000    5.1962    0.0000 C   0  0  0  0  0  0  0  0  0  0  0  0
   -1.5000    5.1962    0.0000 F   0  0  0  0  0  0  0  0  0  0  0  0
    0.7500    6.4952    0.0000 C   0  0  0  0  0  0  0  0  0  0  0  0
    1.5000    7.7942    0.0000 F   0  0  0  0  0  0  0  0  0  0  0  0
    2.0490    5.7452    0.0000 F   0  0  0  0  0  0  0  0  0  0  0  0
   -0.5490    7.2452    0.0000 F   0  0  0  0  0  0  0  0  0  0  0  0
  1  2  2  0
  2  3  1  0
  2  4  1  0
  4  5  2  0
  5  6  1  0
  6  7  2  0
  7  8  1  0
  8  9  1  0
  9 10  1  0
  9 11  1  0
  9 12  1  0
 12 13  1  0
 12 14  1  0
 14 15  1  0
 14 16  1  0
 14 17  1  0
  7 18  1  0
 18 19  2  0
 19 20  1  0
 20 21  1  0
 21 22  1  0
 21 23  1  0
 21 24  1  0
 24 25  1  0
 24 26  1  0
 26 27  1  0
 26 28  1  0
 26 29  1  0
 19  4  1  0
M  END
$$$$

     RDKit          2D

 83 82  0  0  0  0  0  0  0  0999 V2000
    0.0000    0.0000    0.0000 C   0  0  0  0  0  0  0  0  0  0  0  0
    1.2990    0.7500    0.0000 C   0  0  0  0  0  0  0  0  0  0  0  0
    2.5981   -0.0000    0.0000 N   0  0  0  0  0  0  0  0  0  0  0  0
    3.8971    0.7500    0.0000 C   0  0  0  0  0  0  0  0  0  0  0  0
    5.1962   -0.0000    0.0000 C   0  0  0  0  0  0  0  0  0  0  0  0
    6.4952    0.7500    0.0000 O   0  0  0  0  0  0  0  0  0  0  0  0
    7.7942   -0.0000    0.0000 P   0  0  0  0  0  0  0  0  0  0  0  0
    7.0442   -1.2990    0.0000 O   0  0  0  0  0  0  0  0  0  0  0  0
    8.5442    1.2990    0.0000 O   0  0  0  0  0  0  0  0  0  0  0  0
    9.0933   -0.7500    0.0000 O   0  0  0  0  0  0  0  0  0  0  0  0
    9.0933   -2.2500    0.0000 C   0  0  0  0  0  0  0  0  0  0  0  0
   10.3923   -3.0000    0.0000 C   0  0  0  0  0  0  0  0  0  0  0  0
   10.3923   -4.5000    0.0000 N   0  0  0  0  0  0  0  0  0  0  0  0
   11.6913   -5.2500    0.0000 C   0  0  0  0  0  0  0  0  0  0  0  0
   11.6913   -6.7500    0.0000 C   0  0  0  0  0  0  0  0  0  0  0  0
    9.0933   -5.2500    0.0000 S   0  0  0  0  0  0  0  0  0  0  0  0
    8.3433   -3.9510    0.0000 O   0  0  0  0  0  0  0  0  0  0  0  0
    9.5730   -5.8866    0.0000 O   0  0  0  0  0  0  0  0  0  0  0  0
    7.7942   -6.0000    0.0000 C   0  0  0  0  0  0  0  0  0  0  0  0
    7.0442   -4.7010    0.0000 F   0  0  0  0  0  0  0  0  0  0  0  0
    6.4952   -6.7500    0.0000 F   0  0  0  0  0  0  0  0  0  0  0  0
    8.5442   -7.2990    0.0000 C   0  0  0  0  0  0  0  0  0  0  0  0
    7.2452   -8.0490    0.0000 F   0  0  0  0  0  0  0  0  0  0  0  0
    9.3596   -6.9530    0.0000 F   0  0  0  0  0  0  0  0  0  0  0  0
    9.2942   -8.5981    0.0000 C   0  0  0  0  0  0  0  0  0  0  0  0
    7.9952   -9.3481    0.0000 F   0  0  0  0  0  0  0  0  0  0  0  0
   10.5933   -7.8481    0.0000 F   0  0  0  0  0  0  0  0  0  0  0  0
   10.0442   -9.8971    0.0000 C   0  0  0  0  0  0  0  0  0  0  0  0
   11.3433   -9.1471    0.0000 F   0  0  0  0  0  0  0  0  0  0  0  0
    8.7452  -10.6471    0.0000 F   0  0  0  0  0  0  0  0  0  0  0  0
   10.7942  -11.1962    0.0000 C   0  0  0  0  0  0  0  0  0  0  0  0
   12.0933  -10.4462    0.0000 F   0  0  0  0  0  0  0  0  0  0  0  0
    9.4952  -11.9462    0.0000 F   0  0  0  0  0  0  0  0  0  0  0  0
   11.5442  -12.4952    0.0000 C   0  0  0  0  0  0  0  0  0  0  0  0
   10.2452  -13.2452    0.0000 F   0  0  0  0  0  0  0  0  0  0  0  0
   12.8433  -11.7452    0.0000 F   0  0  0  0  0  0  0  0  0  0  0  0
   12.2942  -13.7942    0.0000 C   0  0  0  0  0  0  0  0  0  0  0  0
   10.9952  -14.5442    0.0000 F   0  0  0  0  0  0  0  0  0  0  0  0
   13.5933  -13.0442    0.0000 F   0  0  0  0  0  0  0  0  0  0  0  0
   13.0442  -15.0933    0.0000 C   0  0  0  0  0  0  0  0  0  0  0  0
   11.7452  -15.8433    0.0000 F   0  0  0  0  0  0  0  0  0  0  0  0
   14.3433  -14.3433    0.0000 F   0  0  0  0  0  0  0  0  0  0  0  0
   13.7942  -16.3923    0.0000 C   0  0  0  0  0  0  0  0  0  0  0  0
   15.0933  -15.6423    0.0000 F   0  0  0  0  0  0  0  0  0  0  0  0
   12.4952  -17.1423    0.0000 F   0  0  0  0  0  0  0  0  0  0  0  0
   14.5442  -17.6913    0.0000 C   0  0  0  0  0  0  0  0  0  0  0  0
   15.2942  -18.9904    0.0000 F   0  0  0  0  0  0  0  0  0  0  0  0
   13.2452  -18.4413    0.0000 F   0  0  0  0  0  0  0  0  0  0  0  0
   15.8433  -16.9413    0.0000 F   0  0  0  0  0  0  0  0  0  0  0  0
    2.5981   -1.5000    0.0000 S   0  0  0  0  0  0  0  0  0  0  0  0
    1.1093   -1.3172    0.0000 O   0  0  0  0  0  0  0  0  0  0  0  0
    4.0981   -1.5000    0.0000 O   0  0  0  0  0  0  0  0  0  0  0  0
    2.5981   -3.0000    0.0000 C   0  0  0  0  0  0  0  0  0  0  0  0
    4.0981   -3.0000    0.0000 F   0  0  0  0  0  0  0  0  0  0  0  0
    2.5981   -4.5000    0.0000 F   0  0  0  0  0  0  0  0  0  0  0  0
    1.0981   -3.0000    0.0000 C   0  0  0  0  0  0  0  0  0  0  0  0
    0.9152   -1.5112    0.0000 F   0  0  0  0  0  0  0  0  0  0  0  0
    1.0981   -4.5000    0.0000 F   0  0  0  0  0  0  0  0  0  0  0  0
   -0.4019   -3.0000    0.0000 C   0  0  0  0  0  0  0  0  0  0  0  0
   -0.4019   -1.5000    0.0000 F   0  0  0  0  0  0  0  0  0  0  0  0
   -0.4019   -4.5000    0.0000 F   0  0  0  0  0  0  0  0  0  0  0  0
   -1.9019   -3.0000    0.0000 C   0  0  0  0  0  0  0  0  0  0  0  0
   -1.9019   -4.5000    0.0000 F   0  0  0  0  0  0  0  0  0  0  0  0
   -1.9019   -1.5000    0.0000 F   0  0  0  0  0  0  0  0  0  0  0  0
   -3.4019   -3.0000    0.0000 C   0  0  0  0  0  0  0  0  0  0  0  0
   -3.4019   -1.5000    0.0000 F   0  0  0  0  0  0  0  0  0  0  0  0
   -3.4019   -4.5000    0.0000 F   0  0  0  0  0  0  0  0  0  0  0  0
   -4.9019   -3.0000    0.0000 C   0  0  0  0  0  0  0  0  0  0  0  0
   -4.9019   -1.5000    0.0000 F   0  0  0  0  0  0  0  0  0  0  0  0
   -4.9019   -4.5000    0.0000 F   0  0  0  0  0  0  0  0  0  0  0  0
   -6.4019   -3.0000    0.0000 C   0  0  0  0  0  0  0  0  0  0  0  0
   -6.4019   -4.5000    0.0000 F   0  0  0  0  0  0  0  0  0  0  0  0
   -6.4019   -1.5000    0.0000 F   0  0  0  0  0  0  0  0  0  0  0  0
   -7.9019   -3.0000    0.0000 C   0  0  0  0  0  0  0  0  0  0  0  0
   -7.9019   -1.5000    0.0000 F   0  0  0  0  0  0  0  0  0  0  0  0
   -7.9019   -4.5000    0.0000 F   0  0  0  0  0  0  0  0  0  0  0  0
   -9.4019   -3.0000    0.0000 C   0  0  0  0  0  0  0  0  0  0  0  0
   -9.4019   -4.5000    0.0000 F   0  0  0  0  0  0  0  0  0  0  0  0
   -9.4019   -1.5000    0.0000 F   0  0  0  0  0  0  0  0  0  0  0  0
  -10.9019   -3.0000    0.0000 C   0  0  0  0  0  0  0  0  0  0  0  0
  -12.4019   -3.0000    0.0000 F   0  0  0  0  0  0  0  0  0  0  0  0
  -10.9019   -1.5000    0.0000 F   0  0  0  0  0  0  0  0  0  0  0  0
  -10.9019   -4.5000    0.0000 F   0  0  0  0  0  0  0  0  0  0  0  0
  1  2  1  0
  2  3  1  0
  3  4  1  0
  4  5  1  0
  5  6  1  0
  6  7  1  0
  7  8  2  0
  7  9  1  0
  7 10  1  0
 10 11  1  0
 11 12  1  0
 12 13  1  0
 13 14  1  0
 14 15  1  0
 13 16  1  0
 16 17  2  0
 16 18  2  0
 16 19  1  0
 19 20  1  0
 19 21  1  0
 19 22  1  0
 22 23  1  0
 22 24  1  0
 22 25  1  0
 25 26  1  0
 25 27  1  0
 25 28  1  0
 28 29  1  0
 28 30  1  0
 28 31  1  0
 31 32  1  0
 31 33  1  0
 31 34  1  0
 34 35  1  0
 34 36  1  0
 34 37  1  0
 37 38  1  0
 37 39  1  0
 37 40  1  0
 40 41  1  0
 40 42  1  0
 40 43  1  0
 43 44  1  0
 43 45  1  0
 43 46  1  0
 46 47  1  0
 46 48  1  0
 46 49  1  0
  3 50  1  0
 50 51  2  0
 50 52  2  0
 50 53  1  0
 53 54  1  0
 53 55  1  0
 53 56  1  0
 56 57  1  0
 56 58  1  0
 56 59  1  0
 59 60  1  0
 59 61  1  0
 59 62  1  0
 62 63  1  0
 62 64  1  0
 62 65  1  0
 65 66  1  0
 65 67  1  0
 65 68  1  0
 68 69  1  0
 68 70  1  0
 68 71  1  0
 71 72  1  0
 71 73  1  0
 71 74  1  0
 74 75  1  0
 74 76  1  0
 74 77  1  0
 77 78  1  0
 77 79  1  0
 77 80  1  0
 80 81  1  0
 80 82  1  0
 80 83  1  0
M  END
$$$$

     RDKit          2D

 49 48  0  0  0  0  0  0  0  0999 V2000
    0.0000    0.0000    0.0000 C   0  0  0  0  0  0  0  0  0  0  0  0
    1.2990    0.7500    0.0000 N   0  0  0  0  0  0  0  0  0  0  0  0
    2.5981   -0.0000    0.0000 C   0  0  0  0  0  0  0  0  0  0  0  0
    1.2990    2.2500    0.0000 C   0  0  0  0  0  0  0  0  0  0  0  0
    2.5981    3.0000    0.0000 C   0  0  0  0  0  0  0  0  0  0  0  0
    2.5981    4.5000    0.0000 C   0  0  0  0  0  0  0  0  0  0  0  0
    3.8971    5.2500    0.0000 N   0  0  0  0  0  0  0  0  0  0  0  0
    3.8971    6.7500    0.0000 S   0  0  0  0  0  0  0  0  0  0  0  0
    2.3971    6.7500    0.0000 O   0  0  0  0  0  0  0  0  0  0  0  0
    5.3971    6.7500    0.0000 O   0  0  0  0  0  0  0  0  0  0  0  0
    3.8971    8.2500    0.0000 C   0  0  0  0  0  0  0  0  0  0  0  0
    2.5981    9.0000    0.0000 C   0  0  0  0  0  0  0  0  0  0  0  0
    2.5981   10.5000    0.0000 C   0  0  0  0  0  0  0  0  0  0  0  0
    1.0981   10.5000    0.0000 F   0  0  0  0  0  0  0  0  0  0  0  0
    4.0981   10.5000    0.0000 F   0  0  0  0  0  0  0  0  0  0  0  0
    2.5981   12.0000    0.0000 C   0  0  0  0  0  0  0  0  0  0  0  0
    4.0981   12.0000    0.0000 F   0  0  0  0  0  0  0  0  0  0  0  0
    1.0981   12.0000    0.0000 F   0  0  0  0  0  0  0  0  0  0  0  0
    2.5981   13.5000    0.0000 C   0  0  0  0  0  0  0  0  0  0  0  0
    1.0981   13.5000    0.0000 F   0  0  0  0  0  0  0  0  0  0  0  0
    4.0981   13.5000    0.0000 F   0  0  0  0  0  0  0  0  0  0  0  0
    2.5981   15.0000    0.0000 C   0  0  0  0  0  0  0  0  0  0  0  0
    4.0981   15.0000    0.0000 F   0  0  0  0  0  0  0  0  0  0  0  0
    1.0981   15.0000    0.0000 F   0  0  0  0  0  0  0  0  0  0  0  0
    2.5981   16.5000    0.0000 C   0  0  0  0  0  0  0  0  0  0  0  0
    1.0981   16.5000    0.0000 F   0  0  0  0  0  0  0  0  0  0  0  0
    4.0981   16.5000    0.0000 F   0  0  0  0  0  0  0  0  0  0  0  0
    2.5981   18.0000    0.0000 C   0  0  0  0  0  0  0  0  0  0  0  0
    4.0981   18.0000    0.0000 F   0  0  0  0  0  0  0  0  0  0  0  0
    1.0981   18.0000    0.0000 F   0  0  0  0  0  0  0  0  0  0  0  0
    2.5981   19.5000    0.0000 C   0  0  0  0  0  0  0  0  0  0  0  0
    1.0981   19.5000    0.0000 F   0  0  0  0  0  0  0  0  0  0  0  0
    4.0981   19.5000    0.0000 F   0  0  0  0  0  0  0  0  0  0  0  0
    2.5981   21.0000    0.0000 C   0  0  0  0  0  0  0  0  0  0  0  0
    4.0981   21.0000    0.0000 F   0  0  0  0  0  0  0  0  0  0  0  0
    1.0981   21.0000    0.0000 F   0  0  0  0  0  0  0  0  0  0  0  0
    2.5981   22.5000    0.0000 C   0  0  0  0  0  0  0  0  0  0  0  0
    1.0981   22.5000    0.0000 F   0  0  0  0  0  0  0  0  0  0  0  0
    4.0981   22.5000    0.0000 F   0  0  0  0  0  0  0  0  0  0  0  0
    2.5981   24.0000    0.0000 C   0  0  0  0  0  0  0  0  0  0  0  0
    4.0981   24.0000    0.0000 F   0  0  0  0  0  0  0  0  0  0  0  0
    1.0981   24.0000    0.0000 F   0  0  0  0  0  0  0  0  0  0  0  0
    2.5981   25.5000    0.0000 C   0  0  0  0  0  0  0  0  0  0  0  0
    1.0981   25.5000    0.0000 F   0  0  0  0  0  0  0  0  0  0  0  0
    4.0981   25.5000    0.0000 F   0  0  0  0  0  0  0  0  0  0  0  0
    2.5981   27.0000    0.0000 C   0  0  0  0  0  0  0  0  0  0  0  0
    2.5981   28.5000    0.0000 F   0  0  0  0  0  0  0  0  0  0  0  0
    4.0981   27.0000    0.0000 F   0  0  0  0  0  0  0  0  0  0  0  0
    1.0981   27.0000    0.0000 F   0  0  0  0  0  0  0  0  0  0  0  0
  1  2  1  0
  2  3  1  0
  2  4  1  0
  4  5  1  0
  5  6  1  0
  6  7  1  0
  7  8  1  0
  8  9  2  0
  8 10  2  0
  8 11  1  0
 11 12  1  0
 12 13  1  0
 13 14  1  0
 13 15  1  0
 13 16  1  0
 16 17  1  0
 16 18  1  0
 16 19  1  0
 19 20  1  0
 19 21  1  0
 19 22  1  0
 22 23  1  0
 22 24  1  0
 22 25  1  0
 25 26  1  0
 25 27  1  0
 25 28  1  0
 28 29  1  0
 28 30  1  0
 28 31  1  0
 31 32  1  0
 31 33  1  0
 31 34  1  0
 34 35  1  0
 34 36  1  0
 34 37  1  0
 37 38  1  0
 37 39  1  0
 37 40  1  0
 40 41  1  0
 40 42  1  0
 40 43  1  0
 43 44  1  0
 43 45  1  0
 43 46  1  0
 46 47  1  0
 46 48  1  0
 46 49  1  0
M  END
$$$$

     RDKit          2D

 29 27  0  0  0  0  0  0  0  0999 V2000
    0.0000    0.0000    0.0000 C   0  0  0  0  0  0  0  0  0  0  0  0
    1.2990    0.7500    0.0000 C   0  0  0  0  0  0  0  0  0  0  0  0
    2.5981   -0.0000    0.0000 C   0  0  0  0  0  0  0  0  0  0  0  0
    3.8971    0.7500    0.0000 N   0  0  0  0  0  0  0  0  0  0  0  0
    5.1962   -0.0000    0.0000 C   0  0  0  0  0  0  0  0  0  0  0  0
    6.4952    0.7500    0.0000 C   0  0  0  0  0  0  0  0  0  0  0  0
    6.4952    2.2500    0.0000 O   0  0  0  0  0  0  0  0  0  0  0  0
    7.7942   -0.0000    0.0000 C   0  0  0  0  0  0  0  0  0  0  0  0
    9.0933    0.7500    0.0000 S   0  0  0  0  0  0  0  0  0  0  0  0
    9.8433   -0.5490    0.0000 O   0  0  0  0  0  0  0  0  0  0  0  0
    8.3433    2.0490    0.0000 O   0  0  0  0  0  0  0  0  0  0  0  0
   10.3923    1.5000    0.0000 O   0  0  0  0  0  0  0  0  0  0  0  0
    3.8971    2.2500    0.0000 S   0  0  0  0  0  0  0  0  0  0  0  0
    3.1059    2.1528    0.0000 O   0  0  0  0  0  0  0  0  0  0  0  0
    5.3971    2.2500    0.0000 O   0  0  0  0  0  0  0  0  0  0  0  0
    3.8971    3.7500    0.0000 C   0  0  0  0  0  0  0  0  0  0  0  0
    5.3971    3.7500    0.0000 F   0  0  0  0  0  0  0  0  0  0  0  0
    3.8971    5.2500    0.0000 F   0  0  0  0  0  0  0  0  0  0  0  0
    2.3971    3.7500    0.0000 C   0  0  0  0  0  0  0  0  0  0  0  0
    2.2891    2.8709    0.0000 F   0  0  0  0  0  0  0  0  0  0  0  0
    2.3971    5.2500    0.0000 F   0  0  0  0  0  0  0  0  0  0  0  0
    0.8971    3.7500    0.0000 C   0  0  0  0  0  0  0  0  0  0  0  0
    0.8971    5.2500    0.0000 F   0  0  0  0  0  0  0  0  0  0  0  0
    0.8971    2.2500    0.0000 F   0  0  0  0  0  0  0  0  0  0  0  0
   -0.6029    3.7500    0.0000 C   0  0  0  0  0  0  0  0  0  0  0  0
   -2.1029    3.7500    0.0000 F   0  0  0  0  0  0  0  0  0  0  0  0
   -0.6029    5.2500    0.0000 F   0  0  0  0  0  0  0  0  0  0  0  0
   -0.6029    2.2500    0.0000 F   0  0  0  0  0  0  0  0  0  0  0  0
    0.0000    6.2500    0.0000 Na  0  0  0  0  0 15  0  0  0  0  0  0
  1  2  1  0
  2  3  1  0
  3  4  1  0
  4  5  1  0
  5  6  1  0
  6  7  1  0
  6  8  1  0
  8  9  1  0
  9 10  2  0
  9 11  2  0
  9 12  1  0
  4 13  1  0
 13 14  2  0
 13 15  2  0
 13 16  1  0
 16 17  1  0
 16 18  1  0
 16 19  1  0
 19 20  1  0
 19 21  1  0
 19 22  1  0
 22 23  1  0
 22 24  1  0
 22 25  1  0
 25 26  1  0
 25 27  1  0
 25 28  1  0
M  CHG  2  12  -1  29   1
M  END
$$$$

     RDKit          2D

 25 24  0  0  0  0  0  0  0  0999 V2000
    0.0000    0.0000    0.0000 C   0  0  0  0  0  0  0  0  0  0  0  0
    1.2990    0.7500    0.0000 C   0  0  0  0  0  0  0  0  0  0  0  0
    2.5981   -0.0000    0.0000 C   0  0  0  0  0  0  0  0  0  0  0  0
    3.8971    0.7500    0.0000 C   0  0  0  0  0  0  0  0  0  0  0  0
    5.1962   -0.0000    0.0000 N   0  0  0  0  0  0  0  0  0  0  0  0
    6.4952    0.7500    0.0000 C   0  0  0  0  0  0  0  0  0  0  0  0
    7.7942   -0.0000    0.0000 C   0  0  0  0  0  0  0  0  0  0  0  0
    7.7942   -1.5000    0.0000 O   0  0  0  0  0  0  0  0  0  0  0  0
    9.0933    0.7500    0.0000 O   0  0  0  0  0  0  0  0  0  0  0  0
    5.1962   -1.5000    0.0000 S   0  0  0  0  0  0  0  0  0  0  0  0
    4.4049   -1.4028    0.0000 O   0  0  0  0  0  0  0  0  0  0  0  0
    6.6962   -1.5000    0.0000 O   0  0  0  0  0  0  0  0  0  0  0  0
    5.1962   -3.0000    0.0000 C   0  0  0  0  0  0  0  0  0  0  0  0
    6.6962   -3.0000    0.0000 F   0  0  0  0  0  0  0  0  0  0  0  0
    5.1962   -4.5000    0.0000 F   0  0  0  0  0  0  0  0  0  0  0  0
    3.6962   -3.0000    0.0000 C   0  0  0  0  0  0  0  0  0  0  0  0
    3.6962   -4.5000    0.0000 F   0  0  0  0  0  0  0  0  0  0  0  0
    3.5882   -2.1209    0.0000 F   0  0  0  0  0  0  0  0  0  0  0  0
    2.1962   -3.0000    0.0000 C   0  0  0  0  0  0  0  0  0  0  0  0
    2.1962   -1.5000    0.0000 F   0  0  0  0  0  0  0  0  0  0  0  0
    2.1962   -4.5000    0.0000 F   0  0  0  0  0  0  0  0  0  0  0  0
    0.6962   -3.0000    0.0000 C   0  0  0  0  0  0  0  0  0  0  0  0
   -0.8038   -3.0000    0.0000 F   0  0  0  0  0  0  0  0  0  0  0  0
    0.6962   -1.5000    0.0000 F   0  0  0  0  0  0  0  0  0  0  0  0
    0.6962   -4.5000    0.0000 F   0  0  0  0  0  0  0  0  0  0  0  0
  1  2  1  0
  2  3  1  0
  3  4  1  0
  4  5  1  0
  5  6  1  0
  6  7  1  0
  7  8  2  0
  7  9  1  0
  5 10  1  0
 10 11  2  0
 10 12  2  0
 10 13  1  0
 13 14  1  0
 13 15  1  0
 13 16  1  0
 16 17  1  0
 16 18  1  0
 16 19  1  0
 19 20  1  0
 19 21  1  0
 19 22  1  0
 22 23  1  0
 22 24  1  0
 22 25  1  0
M  END
$$$$

     RDKit          2D

 32 30  0  0  0  0  0  0  0  0999 V2000
    0.0000    0.0000    0.0000 C   0  0  0  0  0  0  0  0  0  0  0  0
    1.2990    0.7500    0.0000 N   0  0  0  0  0  0  0  0  0  0  0  0
    2.5981    1.5000    0.0000 C   0  0  0  0  0  0  0  0  0  0  0  0
    0.5490    2.0490    0.0000 C   0  0  0  0  0  0  0  0  0  0  0  0
    1.2990    3.3481    0.0000 C   0  0  0  0  0  0  0  0  0  0  0  0
    0.5490    4.6471    0.0000 O   0  0  0  0  0  0  0  0  0  0  0  0
    2.0490   -0.5490    0.0000 C   0  0  0  0  0  0  0  0  0  0  0  0
    3.5490   -0.5490    0.0000 C   0  0  0  0  0  0  0  0  0  0  0  0
    4.2990   -1.8481    0.0000 C   0  0  0  0  0  0  0  0  0  0  0  0
    5.7990   -1.8481    0.0000 N   0  0  0  0  0  0  0  0  0  0  0  0
    6.5490   -3.1471    0.0000 C   0  0  0  0  0  0  0  0  0  0  0  0
    5.7990   -4.4462    0.0000 O   0  0  0  0  0  0  0  0  0  0  0  0
    8.0490   -3.1471    0.0000 C   0  0  0  0  0  0  0  0  0  0  0  0
    8.0490   -4.6471    0.0000 F   0  0  0  0  0  0  0  0  0  0  0  0
    8.0490   -1.6471    0.0000 F   0  0  0  0  0  0  0  0  0  0  0  0
    9.5490   -3.1471    0.0000 C   0  0  0  0  0  0  0  0  0  0  0  0
    9.5490   -1.6471    0.0000 F   0  0  0  0  0  0  0  0  0  0  0  0
    9.5490   -4.6471    0.0000 F   0  0  0  0  0  0  0  0  0  0  0  0
   11.0490   -3.1471    0.0000 C   0  0  0  0  0  0  0  0  0  0  0  0
   11.0490   -4.6471    0.0000 F   0  0  0  0  0  0  0  0  0  0  0  0
   11.0490   -1.6471    0.0000 F   0  0  0  0  0  0  0  0  0  0  0  0
   12.5490   -3.1471    0.0000 C   0  0  0  0  0  0  0  0  0  0  0  0
   12.5490   -1.6471    0.0000 F   0  0  0  0  0  0  0  0  0  0  0  0
   12.5490   -4.6471    0.0000 F   0  0  0  0  0  0  0  0  0  0  0  0
   14.0490   -3.1471    0.0000 C   0  0  0  0  0  0  0  0  0  0  0  0
   14.0490   -4.6471    0.0000 F   0  0  0  0  0  0  0  0  0  0  0  0
   14.0490   -1.6471    0.0000 F   0  0  0  0  0  0  0  0  0  0  0  0
   15.5490   -3.1471    0.0000 C   0  0  0  0  0  0  0  0  0  0  0  0
   17.0490   -3.1471    0.0000 F   0  0  0  0  0  0  0  0  0  0  0  0
   15.5490   -1.6471    0.0000 F   0  0  0  0  0  0  0  0  0  0  0  0
   15.5490   -4.6471    0.0000 F   0  0  0  0  0  0  0  0  0  0  0  0
    0.0000    5.6471    0.0000 Cl  0  0  0  0  0  0  0  0  0  0  0  0
  1  2  1  0
  2  3  1  0
  2  4  1  0
  4  5  1  0
  5  6  1  0
  2  7  1  0
  7  8  1  0
  8  9  1  0
  9 10  1  0
 10 11  1  0
 11 12  2  0
 11 13  1  0
 13 14  1  0
 13 15  1  0
 13 16  1  0
 16 17  1  0
 16 18  1  0
 16 19  1  0
 19 20  1  0
 19 21  1  0
 19 22  1  0
 22 23  1  0
 22 24  1  0
 22 25  1  0
 25 26  1  0
 25 27  1  0
 25 28  1  0
 28 29  1  0
 28 30  1  0
 28 31  1  0
M  CHG  2   2   1  32  -1
M  END
$$$$

     RDKit          2D

 46 46  0  0  0  0  0  0  0  0999 V2000
    9.0000    1.0981    0.0000 C   0  0  0  0  0  0  0  0  0  0  0  0
    9.0000    2.5981    0.0000 N   0  0  0  0  0  0  0  0  0  0  0  0
    9.0000    4.0981    0.0000 C   0  0  0  0  0  0  0  0  0  0  0  0
    7.5000    2.5981    0.0000 C   0  0  0  0  0  0  0  0  0  0  0  0
    6.7500    1.2990    0.0000 C   0  0  0  0  0  0  0  0  0  0  0  0
    5.2500    1.2990    0.0000 C   0  0  0  0  0  0  0  0  0  0  0  0
    4.5000    0.0000    0.0000 N   0  0  0  0  0  0  0  0  0  0  0  0
    3.0000    0.0000    0.0000 S   0  0  0  0  0  0  0  0  0  0  0  0
    3.0000   -1.5000    0.0000 O   0  0  0  0  0  0  0  0  0  0  0  0
    3.0000    1.5000    0.0000 O   0  0  0  0  0  0  0  0  0  0  0  0
    1.5000    0.0000    0.0000 C   0  0  0  0  0  0  0  0  0  0  0  0
    0.7500   -1.2990    0.0000 C   0  0  0  0  0  0  0  0  0  0  0  0
   -0.7500   -1.2990    0.0000 C   0  0  0  0  0  0  0  0  0  0  0  0
   -1.5000    0.0000    0.0000 C   0  0  0  0  0  0  0  0  0  0  0  0
   -3.0000    0.0000    0.0000 O   0  0  0  0  0  0  0  0  0  0  0  0
   -3.7500    1.2990    0.0000 C   0  0  0  0  0  0  0  0  0  0  0  0
   -2.4510    2.0490    0.0000 F   0  0  0  0  0  0  0  0  0  0  0  0
   -5.0490    0.5490    0.0000 F   0  0  0  0  0  0  0  0  0  0  0  0
   -4.5000    2.5981    0.0000 C   0  0  0  0  0  0  0  0  0  0  0  0
   -5.7990    1.8481    0.0000 F   0  0  0  0  0  0  0  0  0  0  0  0
   -3.2010    3.3481    0.0000 F   0  0  0  0  0  0  0  0  0  0  0  0
   -5.2500    3.8971    0.0000 C   0  0  0  0  0  0  0  0  0  0  0  0
   -3.9510    4.6471    0.0000 F   0  0  0  0  0  0  0  0  0  0  0  0
   -6.5490    3.1471    0.0000 F   0  0  0  0  0  0  0  0  0  0  0  0
   -6.0000    5.1962    0.0000 C   0  0  0  0  0  0  0  0  0  0  0  0
   -7.2990    4.4462    0.0000 F   0  0  0  0  0  0  0  0  0  0  0  0
   -4.7010    5.9462    0.0000 F   0  0  0  0  0  0  0  0  0  0  0  0
   -6.7500    6.4952    0.0000 C   0  0  0  0  0  0  0  0  0  0  0  0
   -8.0490    5.7452    0.0000 F   0  0  0  0  0  0  0  0  0  0  0  0
   -5.4510    7.2452    0.0000 F   0  0  0  0  0  0  0  0  0  0  0  0
   -7.5000    7.7942    0.0000 C   0  0  0  0  0  0  0  0  0  0  0  0
   -6.2010    8.5442    0.0000 F   0  0  0  0  0  0  0  0  0  0  0  0
   -8.7990    7.0442    0.0000 F   0  0  0  0  0  0  0  0  0  0  0  0
   -8.2500    9.0933    0.0000 C   0  0  0  0  0  0  0  0  0  0  0  0
   -9.5490    8.3433    0.0000 F   0  0  0  0  0  0  0  0  0  0  0  0
   -6.9510    9.8433    0.0000 F   0  0  0  0  0  0  0  0  0  0  0  0
   -9.0000   10.3923    0.0000 C   0  0  0  0  0  0  0  0  0  0  0  0
   -9.7500   11.6913    0.0000 F   0  0  0  0  0  0  0  0  0  0  0  0
   -7.7010   11.1423    0.0000 F   0  0  0  0  0  0  0  0  0  0  0  0
  -10.2990    9.6423    0.0000 F   0  0  0  0  0  0  0  0  0  0  0  0
   -0.7500    1.2990    0.0000 C   0  0  0  0  0  0  0  0  0  0  0  0
    0.7500    1.2990    0.0000 C   0  0  0  0  0  0  0  0  0  0  0  0
   10.5000    2.5981    0.0000 C   0  0  0  0  0  0  0  0  0  0  0  0
   11.2500    1.2990    0.0000 C   0  0  0  0  0  0  0  0  0  0  0  0
   10.5000    0.0000    0.0000 O   0  0  0  0  0  0  0  0  0  0  0  0
   12.7500    1.2990    0.0000 O   0  0  0  0  0  0  0  0  0  0  0  0
  1  2  1  0
  2  3  1  0
  2  4  1  0
  4  5  1  0
  5  6  1  0
  6  7  1  0
  7  8  1  0
  8  9  2  0
  8 10  2  0
  8 11  1  0
 11 12  2  0
 12 13  1  0
 13 14  2  0
 14 15  1  0
 15 16  1  0
 16 17  1  0
 16 18  1  0
 16 19  1  0
 19 20  1  0
 19 21  1  0
 19 22  1  0
 22 23  1  0
 22 24  1  0
 22 25  1  0
 25 26  1  0
 25 27  1  0
 25 28  1  0
 28 29  1  0
 28 30  1  0
 28 31  1  0
 31 32  1  0
 31 33  1  0
 31 34  1  0
 34 35  1  0
 34 36  1  0
 34 37  1  0
 37 38  1  0
 37 39  1  0
 37 40  1  0
 14 41  1  0
 41 42  2  0
  2 43  1  0
 43 44  1  0
 44 45  2  0
 44 46  1  0
 42 11  1  0
M  CHG  2   2   1  46  -1
M  END
$$$$

     RDKit          2D

 39 38  0  0  0  0  0  0  0  0999 V2000
    4.0981   24.8827    0.0000 C   0  0  0  0  0  0  0  0  0  0  0  0
    2.7990   24.1327    0.0000 N   0  0  0  0  0  0  0  0  0  0  0  0
    1.5000   23.3827    0.0000 C   0  0  0  0  0  0  0  0  0  0  0  0
    2.0490   25.4317    0.0000 C   0  0  0  0  0  0  0  0  0  0  0  0
    3.5490   22.8336    0.0000 C   0  0  0  0  0  0  0  0  0  0  0  0
    2.7990   21.5346    0.0000 C   0  0  0  0  0  0  0  0  0  0  0  0
    3.5490   20.2356    0.0000 O   0  0  0  0  0  0  0  0  0  0  0  0
    2.7990   18.9365    0.0000 C   0  0  0  0  0  0  0  0  0  0  0  0
    3.5490   17.6375    0.0000 C   0  0  0  0  0  0  0  0  0  0  0  0
    2.7990   16.3385    0.0000 C   0  0  0  0  0  0  0  0  0  0  0  0
    3.5490   15.0394    0.0000 N   0  0  0  0  0  0  0  0  0  0  0  0
    2.7990   13.7404    0.0000 S   0  0  0  0  0  0  0  0  0  0  0  0
    1.5000   14.4904    0.0000 O   0  0  0  0  0  0  0  0  0  0  0  0
    3.5328   13.4289    0.0000 O   0  0  0  0  0  0  0  0  0  0  0  0
    2.0490   12.4413    0.0000 C   0  0  0  0  0  0  0  0  0  0  0  0
    0.7500   13.1913    0.0000 F   0  0  0  0  0  0  0  0  0  0  0  0
    1.2990   11.1423    0.0000 F   0  0  0  0  0  0  0  0  0  0  0  0
    3.3481   11.6913    0.0000 C   0  0  0  0  0  0  0  0  0  0  0  0
    2.5981   10.3923    0.0000 F   0  0  0  0  0  0  0  0  0  0  0  0
    3.8811   12.3987    0.0000 F   0  0  0  0  0  0  0  0  0  0  0  0
    4.6471   10.9413    0.0000 C   0  0  0  0  0  0  0  0  0  0  0  0
    5.3971   12.2404    0.0000 F   0  0  0  0  0  0  0  0  0  0  0  0
    3.8971    9.6423    0.0000 F   0  0  0  0  0  0  0  0  0  0  0  0
    5.9462   10.1913    0.0000 C   0  0  0  0  0  0  0  0  0  0  0  0
    5.1962    8.8923    0.0000 F   0  0  0  0  0  0  0  0  0  0  0  0
    6.6962   11.4904    0.0000 F   0  0  0  0  0  0  0  0  0  0  0  0
    7.2452    9.4413    0.0000 C   0  0  0  0  0  0  0  0  0  0  0  0
    6.4952    8.1423    0.0000 F   0  0  0  0  0  0  0  0  0  0  0  0
    7.9952   10.7404    0.0000 F   0  0  0  0  0  0  0  0  0  0  0  0
    8.5442    8.6913    0.0000 C   0  0  0  0  0  0  0  0  0  0  0  0
    9.2942    9.9904    0.0000 F   0  0  0  0  0  0  0  0  0  0  0  0
    7.7942    7.3923    0.0000 F   0  0  0  0  0  0  0  0  0  0  0  0
    9.8433    7.9413    0.0000 C   0  0  0  0  0  0  0  0  0  0  0  0
    9.0933    6.6423    0.0000 F   0  0  0  0  0  0  0  0  0  0  0  0
   10.5933    9.2404    0.0000 F   0  0  0  0  0  0  0  0  0  0  0  0
   11.1423    7.1913    0.0000 C   0  0  0  0  0  0  0  0  0  0  0  0
   12.4413    6.4413    0.0000 F   0  0  0  0  0  0  0  0  0  0  0  0
   11.8923    8.4904    0.0000 F   0  0  0  0  0  0  0  0  0  0  0  0
   10.3923    5.8923    0.0000 F   0  0  0  0  0  0  0  0  0  0  0  0
  1  2  1  0
  2  3  1  0
  2  4  1  0
  2  5  1  0
  5  6  1  0
  6  7  1  0
  7  8  1  0
  8  9  1  0
  9 10  1  0
 10 11  1  0
 11 12  1  0
 12 13  2  0
 12 14  2  0
 12 15  1  0
 15 16  1  0
 15 17  1  0
 15 18  1  0
 18 19  1  0
 18 20  1  0
 18 21  1  0
 21 22  1  0
 21 23  1  0
 21 24  1  0
 24 25  1  0
 24 26  1  0
 24 27  1  0
 27 28  1  0
 27 29  1  0
 27 30  1  0
 30 31  1  0
 30 32  1  0
 30 33  1  0
 33 34  1  0
 33 35  1  0
 33 36  1  0
 36 37  1  0
 36 38  1  0
 36 39  1  0
M  CHG  1   2   1
M  END
$$$$

     RDKit          2D

 35 34  0  0  0  0  0  0  0  0999 V2000
   -0.0000   -1.5000    0.0000 O   0  0  0  0  0  0  0  0  0  0  0  0
    0.0000    0.0000    0.0000 C   0  0  0  0  0  0  0  0  0  0  0  0
   -1.2990    0.7500    0.0000 O   0  0  0  0  0  0  0  0  0  0  0  0
    1.2990    0.7500    0.0000 C   0  0  0  0  0  0  0  0  0  0  0  0
    2.0490   -0.5490    0.0000 F   0  0  0  0  0  0  0  0  0  0  0  0
    0.5490    2.0490    0.0000 F   0  0  0  0  0  0  0  0  0  0  0  0
    2.5981    1.5000    0.0000 C   0  0  0  0  0  0  0  0  0  0  0  0
    3.8971    0.7500    0.0000 F   0  0  0  0  0  0  0  0  0  0  0  0
    2.5981    3.0000    0.0000 C   0  0  0  0  0  0  0  0  0  0  0  0
    4.0981    3.0000    0.0000 F   0  0  0  0  0  0  0  0  0  0  0  0
    1.0981    3.0000    0.0000 F   0  0  0  0  0  0  0  0  0  0  0  0
    2.5981    4.5000    0.0000 O   0  0  0  0  0  0  0  0  0  0  0  0
    1.2990    5.2500    0.0000 C   0  0  0  0  0  0  0  0  0  0  0  0
    0.5490    3.9510    0.0000 F   0  0  0  0  0  0  0  0  0  0  0  0
    2.0490    6.5490    0.0000 F   0  0  0  0  0  0  0  0  0  0  0  0
    0.0000    6.0000    0.0000 C   0  0  0  0  0  0  0  0  0  0  0  0
   -0.7500    4.7010    0.0000 F   0  0  0  0  0  0  0  0  0  0  0  0
    0.7500    7.2990    0.0000 F   0  0  0  0  0  0  0  0  0  0  0  0
   -1.2990    6.7500    0.0000 O   0  0  0  0  0  0  0  0  0  0  0  0
   -1.2990    8.2500    0.0000 C   0  0  0  0  0  0  0  0  0  0  0  0
   -2.7990    8.2500    0.0000 F   0  0  0  0  0  0  0  0  0  0  0  0
    0.2010    8.2500    0.0000 F   0  0  0  0  0  0  0  0  0  0  0  0
   -1.2990    9.7500    0.0000 O   0  0  0  0  0  0  0  0  0  0  0  0
    0.0000   10.5000    0.0000 C   0  0  0  0  0  0  0  0  0  0  0  0
   -0.7500   11.7990    0.0000 F   0  0  0  0  0  0  0  0  0  0  0  0
    0.7500    9.2010    0.0000 F   0  0  0  0  0  0  0  0  0  0  0  0
    1.2990   11.2500    0.0000 O   0  0  0  0  0  0  0  0  0  0  0  0
    2.5981   10.5000    0.0000 C   0  0  0  0  0  0  0  0  0  0  0  0
    3.3481   11.7990    0.0000 F   0  0  0  0  0  0  0  0  0  0  0  0
    1.8481    9.2010    0.0000 F   0  0  0  0  0  0  0  0  0  0  0  0
    3.8971    9.7500    0.0000 O   0  0  0  0  0  0  0  0  0  0  0  0
    3.8971    8.2500    0.0000 C   0  0  0  0  0  0  0  0  0  0  0  0
    3.8971    6.7500    0.0000 F   0  0  0  0  0  0  0  0  0  0  0  0
    5.3971    8.2500    0.0000 F   0  0  0  0  0  0  0  0  0  0  0  0
    2.3971    8.2500    0.0000 F   0  0  0  0  0  0  0  0  0  0  0  0
  1  2  2  0
  2  3  1  0
  2  4  1  0
  4  5  1  0
  4  6  1  0
  4  7  1  0
  7  8  1  0
  7  9  1  0
  9 10  1  0
  9 11  1  0
  9 12  1  0
 12 13  1  0
 13 14  1  0
 13 15  1  0
 13 16  1  0
 16 17  1  0
 16 18  1  0
 16 19  1  0
 19 20  1  0
 20 21  1  0
 20 22  1  0
 20 23  1  0
 23 24  1  0
 24 25  1  0
 24 26  1  0
 24 27  1  0
 27 28  1  0
 28 29  1  0
 28 30  1  0
 28 31  1  0
 31 32  1  0
 32 33  1  0
 32 34  1  0
 32 35  1  0
M  END
$$$$

     RDKit          2D

 25 24  0  0  0  0  0  0  0  0999 V2000
    1.2990    2.2500    0.0000 O   0  0  0  0  0  0  0  0  0  0  0  0
    1.2990    0.7500    0.0000 C   0  0  0  0  0  0  0  0  0  0  0  0
    2.5981   -0.0000    0.0000 O   0  0  0  0  0  0  0  0  0  0  0  0
    0.0000    0.0000    0.0000 C   0  0  0  0  0  0  0  0  0  0  0  0
   -1.2990    0.7500    0.0000 O   0  0  0  0  0  0  0  0  0  0  0  0
   -2.5981    0.0000    0.0000 C   0  0  0  0  0  0  0  0  0  0  0  0
   -1.8481   -1.2990    0.0000 F   0  0  0  0  0  0  0  0  0  0  0  0
   -3.3481    1.2990    0.0000 F   0  0  0  0  0  0  0  0  0  0  0  0
   -3.8971   -0.7500    0.0000 C   0  0  0  0  0  0  0  0  0  0  0  0
   -5.1962    0.0000    0.0000 F   0  0  0  0  0  0  0  0  0  0  0  0
   -3.8971   -2.2500    0.0000 O   0  0  0  0  0  0  0  0  0  0  0  0
   -5.1962   -3.0000    0.0000 C   0  0  0  0  0  0  0  0  0  0  0  0
   -5.9462   -1.7010    0.0000 F   0  0  0  0  0  0  0  0  0  0  0  0
   -4.4462   -4.2990    0.0000 F   0  0  0  0  0  0  0  0  0  0  0  0
   -6.4952   -3.7500    0.0000 C   0  0  0  0  0  0  0  0  0  0  0  0
   -7.2452   -2.4510    0.0000 F   0  0  0  0  0  0  0  0  0  0  0  0
   -5.7452   -5.0490    0.0000 F   0  0  0  0  0  0  0  0  0  0  0  0
   -7.7942   -4.5000    0.0000 C   0  0  0  0  0  0  0  0  0  0  0  0
   -7.0442   -5.7990    0.0000 F   0  0  0  0  0  0  0  0  0  0  0  0
   -8.5442   -3.2010    0.0000 F   0  0  0  0  0  0  0  0  0  0  0  0
   -9.0933   -5.2500    0.0000 O   0  0  0  0  0  0  0  0  0  0  0  0
  -10.3923   -4.5000    0.0000 C   0  0  0  0  0  0  0  0  0  0  0  0
  -11.6913   -3.7500    0.0000 F   0  0  0  0  0  0  0  0  0  0  0  0
  -11.1423   -5.7990    0.0000 F   0  0  0  0  0  0  0  0  0  0  0  0
   -9.6423   -3.2010    0.0000 F   0  0  0  0  0  0  0  0  0  0  0  0
  1  2  2  0
  2  3  1  0
  2  4  1  0
  4  5  1  0
  5  6  1  0
  6  7  1  0
  6  8  1  0
  6  9  1  0
  9 10  1  0
  9 11  1  0
 11 12  1  0
 12 13  1  0
 12 14  1  0
 12 15  1  0
 15 16  1  0
 15 17  1  0
 15 18  1  0
 18 19  1  0
 18 20  1  0
 18 21  1  0
 21 22  1  0
 22 23  1  0
 22 24  1  0
 22 25  1  0
M  END
$$$$

     RDKit          2D

 39 37  0  0  0  0  0  0  0  0999 V2000
   -0.0000    0.0000    0.0000 C   0  0  0  0  0  0  0  0  0  0  0  0
    1.2990    0.7500    0.0000 N   0  0  0  0  0  0  0  0  0  0  0  0
    2.6798    0.1639    0.0000 C   0  0  0  0  0  0  0  0  0  0  0  0
    1.2990    2.2500    0.0000 C   0  0  0  0  0  0  0  0  0  0  0  0
    2.5981    3.0000    0.0000 C   0  0  0  0  0  0  0  0  0  0  0  0
    3.7960    2.0972    0.0000 O   0  0  0  0  0  0  0  0  0  0  0  0
    2.5981    4.5000    0.0000 C   0  0  0  0  0  0  0  0  0  0  0  0
    3.8971    5.2500    0.0000 N   0  0  0  0  0  0  0  0  0  0  0  0
    3.8971    6.7500    0.0000 C   0  0  0  0  0  0  0  0  0  0  0  0
    5.1962    7.5000    0.0000 C   0  0  0  0  0  0  0  0  0  0  0  0
    6.4952    6.7500    0.0000 O   0  0  0  0  0  0  0  0  0  0  0  0
    5.1962    9.0000    0.0000 C   0  0  0  0  0  0  0  0  0  0  0  0
    6.4952    9.7500    0.0000 S   0  0  0  0  0  0  0  0  0  0  0  0
    5.7452   11.0490    0.0000 O   0  0  0  0  0  0  0  0  0  0  0  0
    7.2452    8.4510    0.0000 O   0  0  0  0  0  0  0  0  0  0  0  0
    7.7942   10.5000    0.0000 O   0  0  0  0  0  0  0  0  0  0  0  0
    5.1962    4.5000    0.0000 S   0  0  0  0  0  0  0  0  0  0  0  0
    4.7164    3.8634    0.0000 O   0  0  0  0  0  0  0  0  0  0  0  0
    5.9462    5.7990    0.0000 O   0  0  0  0  0  0  0  0  0  0  0  0
    6.4952    3.7500    0.0000 C   0  0  0  0  0  0  0  0  0  0  0  0
    7.2452    5.0490    0.0000 F   0  0  0  0  0  0  0  0  0  0  0  0
    7.7942    3.0000    0.0000 F   0  0  0  0  0  0  0  0  0  0  0  0
    5.7452    2.4510    0.0000 C   0  0  0  0  0  0  0  0  0  0  0  0
    7.0442    1.7010    0.0000 F   0  0  0  0  0  0  0  0  0  0  0  0
    4.9299    2.7970    0.0000 F   0  0  0  0  0  0  0  0  0  0  0  0
    4.9952    1.1519    0.0000 C   0  0  0  0  0  0  0  0  0  0  0  0
    6.2942    0.4019    0.0000 F   0  0  0  0  0  0  0  0  0  0  0  0
    3.6144    1.7380    0.0000 F   0  0  0  0  0  0  0  0  0  0  0  0
    4.2452   -0.1471    0.0000 C   0  0  0  0  0  0  0  0  0  0  0  0
    3.0473    0.7556    0.0000 F   0  0  0  0  0  0  0  0  0  0  0  0
    5.5442   -0.8971    0.0000 F   0  0  0  0  0  0  0  0  0  0  0  0
    3.4952   -1.4462    0.0000 C   0  0  0  0  0  0  0  0  0  0  0  0
    2.1962   -0.6962    0.0000 F   0  0  0  0  0  0  0  0  0  0  0  0
    4.7942   -2.1962    0.0000 F   0  0  0  0  0  0  0  0  0  0  0  0
    2.7452   -2.7452    0.0000 C   0  0  0  0  0  0  0  0  0  0  0  0
    1.9952   -4.0442    0.0000 F   0  0  0  0  0  0  0  0  0  0  0  0
    1.4462   -1.9952    0.0000 F   0  0  0  0  0  0  0  0  0  0  0  0
    4.0442   -3.4952    0.0000 F   0  0  0  0  0  0  0  0  0  0  0  0
    8.7942    0.0000    0.0000 Na  0  0  0  0  0 15  0  0  0  0  0  0
  1  2  1  0
  2  3  1  0
  2  4  1  0
  4  5  1  0
  5  6  1  0
  5  7  1  0
  7  8  1  0
  8  9  1  0
  9 10  1  0
 10 11  1  0
 10 12  1  0
 12 13  1  0
 13 14  2  0
 13 15  2  0
 13 16  1  0
  8 17  1  0
 17 18  2  0
 17 19  2  0
 17 20  1  0
 20 21  1  0
 20 22  1  0
 20 23  1  0
 23 24  1  0
 23 25  1  0
 23 26  1  0
 26 27  1  0
 26 28  1  0
 26 29  1  0
 29 30  1  0
 29 31  1  0
 29 32  1  0
 32 33  1  0
 32 34  1  0
 32 35  1  0
 35 36  1  0
 35 37  1  0
 35 38  1  0
M  CHG  2  16  -1  39   1
M  END
$$$$

     RDKit          2D

 38 36  0  0  0  0  0  0  0  0999 V2000
    5.1962    7.5000    0.0000 N   0  0  0  0  0  0  0  0  0  0  0  0
    3.8971    6.7500    0.0000 C   0  0  0  0  0  0  0  0  0  0  0  0
    3.8971    5.2500    0.0000 C   0  0  0  0  0  0  0  0  0  0  0  0
    2.5981    4.5000    0.0000 C   0  0  0  0  0  0  0  0  0  0  0  0
    2.5981    3.0000    0.0000 N   0  0  0  0  0  0  0  0  0  0  0  0
    1.2990    2.2500    0.0000 C   0  0  0  0  0  0  0  0  0  0  0  0
    1.2990    0.7500    0.0000 C   0  0  0  0  0  0  0  0  0  0  0  0
    2.5981    0.0000    0.0000 O   0  0  0  0  0  0  0  0  0  0  0  0
   -0.0000    0.0000    0.0000 C   0  0  0  0  0  0  0  0  0  0  0  0
   -0.0000   -1.5000    0.0000 S   0  0  0  0  0  0  0  0  0  0  0  0
   -1.5000   -1.5000    0.0000 O   0  0  0  0  0  0  0  0  0  0  0  0
    1.5000   -1.5000    0.0000 O   0  0  0  0  0  0  0  0  0  0  0  0
   -0.0000   -3.0000    0.0000 O   0  0  0  0  0  0  0  0  0  0  0  0
    3.8971    2.2500    0.0000 C   0  0  0  0  0  0  0  0  0  0  0  0
    3.8971    0.7500    0.0000 O   0  0  0  0  0  0  0  0  0  0  0  0
    5.1962    3.0000    0.0000 C   0  0  0  0  0  0  0  0  0  0  0  0
    4.4462    4.2990    0.0000 F   0  0  0  0  0  0  0  0  0  0  0  0
    5.9462    1.7010    0.0000 F   0  0  0  0  0  0  0  0  0  0  0  0
    6.4952    3.7500    0.0000 C   0  0  0  0  0  0  0  0  0  0  0  0
    5.7452    5.0490    0.0000 F   0  0  0  0  0  0  0  0  0  0  0  0
    7.2452    2.4510    0.0000 F   0  0  0  0  0  0  0  0  0  0  0  0
    7.7942    4.5000    0.0000 C   0  0  0  0  0  0  0  0  0  0  0  0
    8.5442    3.2010    0.0000 F   0  0  0  0  0  0  0  0  0  0  0  0
    7.0442    5.7990    0.0000 F   0  0  0  0  0  0  0  0  0  0  0  0
    9.0933    5.2500    0.0000 C   0  0  0  0  0  0  0  0  0  0  0  0
    8.3433    6.5490    0.0000 F   0  0  0  0  0  0  0  0  0  0  0  0
    9.8433    3.9510    0.0000 F   0  0  0  0  0  0  0  0  0  0  0  0
   10.3923    6.0000    0.0000 C   0  0  0  0  0  0  0  0  0  0  0  0
   11.1423    4.7010    0.0000 F   0  0  0  0  0  0  0  0  0  0  0  0
    9.6423    7.2990    0.0000 F   0  0  0  0  0  0  0  0  0  0  0  0
   11.6913    6.7500    0.0000 C   0  0  0  0  0  0  0  0  0  0  0  0
   10.9413    8.0490    0.0000 F   0  0  0  0  0  0  0  0  0  0  0  0
   12.4413    5.4510    0.0000 F   0  0  0  0  0  0  0  0  0  0  0  0
   12.9904    7.5000    0.0000 C   0  0  0  0  0  0  0  0  0  0  0  0
   14.2894    8.2500    0.0000 F   0  0  0  0  0  0  0  0  0  0  0  0
   13.7404    6.2010    0.0000 F   0  0  0  0  0  0  0  0  0  0  0  0
   12.2404    8.7990    0.0000 F   0  0  0  0  0  0  0  0  0  0  0  0
    0.0000    9.7990    0.0000 Na  0  0  0  0  0 15  0  0  0  0  0  0
  1  2  1  0
  2  3  1  0
  3  4  1  0
  4  5  1  0
  5  6  1  0
  6  7  1  0
  7  8  1  0
  7  9  1  0
  9 10  1  0
 10 11  2  0
 10 12  2  0
 10 13  1  0
  5 14  1  0
 14 15  2  0
 14 16  1  0
 16 17  1  0
 16 18  1  0
 16 19  1  0
 19 20  1  0
 19 21  1  0
 19 22  1  0
 22 23  1  0
 22 24  1  0
 22 25  1  0
 25 26  1  0
 25 27  1  0
 25 28  1  0
 28 29  1  0
 28 30  1  0
 28 31  1  0
 31 32  1  0
 31 33  1  0
 31 34  1  0
 34 35  1  0
 34 36  1  0
 34 37  1  0
M  CHG  2  13  -1  38   1
M  END
$$$$

     RDKit          2D

 17 16  0  0  0  0  0  0  0  0999 V2000
   -0.5490   -3.5490    0.0000 O   0  0  0  0  0  0  0  0  0  0  0  0
   -1.2990   -2.2500    0.0000 S   0  0  0  0  0  0  0  0  0  0  0  0
   -2.0490   -0.9510    0.0000 O   0  0  0  0  0  0  0  0  0  0  0  0
   -2.5981   -3.0000    0.0000 O   0  0  0  0  0  0  0  0  0  0  0  0
   -0.0000   -1.5000    0.0000 C   0  0  0  0  0  0  0  0  0  0  0  0
    1.2990   -2.2500    0.0000 O   0  0  0  0  0  0  0  0  0  0  0  0
   -0.0000    0.0000    0.0000 C   0  0  0  0  0  0  0  0  0  0  0  0
    1.2990    0.7500    0.0000 C   0  0  0  0  0  0  0  0  0  0  0  0
    2.0490   -0.5490    0.0000 F   0  0  0  0  0  0  0  0  0  0  0  0
    0.5490    2.0490    0.0000 F   0  0  0  0  0  0  0  0  0  0  0  0
    2.5981    1.5000    0.0000 C   0  0  0  0  0  0  0  0  0  0  0  0
    1.8481    2.7990    0.0000 F   0  0  0  0  0  0  0  0  0  0  0  0
    3.3481    0.2010    0.0000 F   0  0  0  0  0  0  0  0  0  0  0  0
    3.8971    2.2500    0.0000 C   0  0  0  0  0  0  0  0  0  0  0  0
    5.1962    3.0000    0.0000 F   0  0  0  0  0  0  0  0  0  0  0  0
    4.6471    0.9510    0.0000 F   0  0  0  0  0  0  0  0  0  0  0  0
    3.1471    3.5490    0.0000 F   0  0  0  0  0  0  0  0  0  0  0  0
  1  2  2  0
  2  3  2  0
  2  4  1  0
  2  5  1  0
  5  6  1  0
  5  7  1  0
  7  8  1  0
  8  9  1  0
  8 10  1  0
  8 11  1  0
 11 12  1  0
 11 13  1  0
 11 14  1  0
 14 15  1  0
 14 16  1  0
 14 17  1  0
M  END
$$$$

     RDKit          2D

 23 22  0  0  0  0  0  0  0  0999 V2000
   -0.5490   -3.5490    0.0000 O   0  0  0  0  0  0  0  0  0  0  0  0
   -1.2990   -2.2500    0.0000 S   0  0  0  0  0  0  0  0  0  0  0  0
   -2.0490   -0.9510    0.0000 O   0  0  0  0  0  0  0  0  0  0  0  0
   -2.5981   -3.0000    0.0000 O   0  0  0  0  0  0  0  0  0  0  0  0
   -0.0000   -1.5000    0.0000 C   0  0  0  0  0  0  0  0  0  0  0  0
    1.2990   -2.2500    0.0000 O   0  0  0  0  0  0  0  0  0  0  0  0
   -0.0000    0.0000    0.0000 C   0  0  0  0  0  0  0  0  0  0  0  0
    1.2990    0.7500    0.0000 C   0  0  0  0  0  0  0  0  0  0  0  0
    2.0490   -0.5490    0.0000 F   0  0  0  0  0  0  0  0  0  0  0  0
    0.5490    2.0490    0.0000 F   0  0  0  0  0  0  0  0  0  0  0  0
    2.5981    1.5000    0.0000 C   0  0  0  0  0  0  0  0  0  0  0  0
    1.8481    2.7990    0.0000 F   0  0  0  0  0  0  0  0  0  0  0  0
    3.3481    0.2010    0.0000 F   0  0  0  0  0  0  0  0  0  0  0  0
    3.8971    2.2500    0.0000 C   0  0  0  0  0  0  0  0  0  0  0  0
    4.6471    0.9510    0.0000 F   0  0  0  0  0  0  0  0  0  0  0  0
    3.1471    3.5490    0.0000 F   0  0  0  0  0  0  0  0  0  0  0  0
    5.1962    3.0000    0.0000 C   0  0  0  0  0  0  0  0  0  0  0  0
    4.4462    4.2990    0.0000 F   0  0  0  0  0  0  0  0  0  0  0  0
    5.9462    1.7010    0.0000 F   0  0  0  0  0  0  0  0  0  0  0  0
    6.4952    3.7500    0.0000 C   0  0  0  0  0  0  0  0  0  0  0  0
    7.7942    4.5000    0.0000 F   0  0  0  0  0  0  0  0  0  0  0  0
    7.2452    2.4510    0.0000 F   0  0  0  0  0  0  0  0  0  0  0  0
    5.7452    5.0490    0.0000 F   0  0  0  0  0  0  0  0  0  0  0  0
  1  2  2  0
  2  3  2  0
  2  4  1  0
  2  5  1  0
  5  6  1  0
  5  7  1  0
  7  8  1  0
  8  9  1  0
  8 10  1  0
  8 11  1  0
 11 12  1  0
 11 13  1  0
 11 14  1  0
 14 15  1  0
 14 16  1  0
 14 17  1  0
 17 18  1  0
 17 19  1  0
 17 20  1  0
 20 21  1  0
 20 22  1  0
 20 23  1  0
M  CHG  1   4  -1
M  END
$$$$

     RDKit          2D

 20 19  0  0  0  0  0  0  0  0999 V2000
    0.0000    0.0000    0.0000 C   0  0  0  0  0  0  0  0  0  0  0  0
    1.2990    0.7500    0.0000 C   0  0  0  0  0  0  0  0  0  0  0  0
    2.5981   -0.0000    0.0000 N   0  0  0  0  0  0  0  0  0  0  0  0
    1.8481   -1.2990    0.0000 C   0  0  0  0  0  0  0  0  0  0  0  0
    3.3481    1.2990    0.0000 C   0  0  0  0  0  0  0  0  0  0  0  0
    3.8971   -0.7500    0.0000 C   0  0  0  0  0  0  0  0  0  0  0  0
    3.8971   -2.2500    0.0000 C   0  0  0  0  0  0  0  0  0  0  0  0
    5.1962   -3.0000    0.0000 C   0  0  0  0  0  0  0  0  0  0  0  0
    4.4462   -4.2990    0.0000 F   0  0  0  0  0  0  0  0  0  0  0  0
    5.9462   -1.7010    0.0000 F   0  0  0  0  0  0  0  0  0  0  0  0
    6.4952   -3.7500    0.0000 C   0  0  0  0  0  0  0  0  0  0  0  0
    7.2452   -2.4510    0.0000 F   0  0  0  0  0  0  0  0  0  0  0  0
    5.7452   -5.0490    0.0000 F   0  0  0  0  0  0  0  0  0  0  0  0
    7.7942   -4.5000    0.0000 C   0  0  0  0  0  0  0  0  0  0  0  0
    7.0442   -5.7990    0.0000 F   0  0  0  0  0  0  0  0  0  0  0  0
    8.5442   -3.2010    0.0000 F   0  0  0  0  0  0  0  0  0  0  0  0
    9.0933   -5.2500    0.0000 C   0  0  0  0  0  0  0  0  0  0  0  0
   10.3923   -6.0000    0.0000 F   0  0  0  0  0  0  0  0  0  0  0  0
    9.8433   -3.9510    0.0000 F   0  0  0  0  0  0  0  0  0  0  0  0
    8.3433   -6.5490    0.0000 F   0  0  0  0  0  0  0  0  0  0  0  0
  1  2  1  0
  2  3  1  0
  3  4  1  0
  3  5  1  0
  3  6  1  0
  6  7  1  0
  7  8  1  0
  8  9  1  0
  8 10  1  0
  8 11  1  0
 11 12  1  0
 11 13  1  0
 11 14  1  0
 14 15  1  0
 14 16  1  0
 14 17  1  0
 17 18  1  0
 17 19  1  0
 17 20  1  0
M  CHG  1   3   1
M  END
$$$$

     RDKit          2D

 55 54  0  0  0  0  0  0  0  0999 V2000
    1.2990    2.2500    0.0000 O   0  0  0  0  0  0  0  0  0  0  0  0
    1.2990    0.7500    0.0000 C   0  0  0  0  0  0  0  0  0  0  0  0
    2.5981   -0.0000    0.0000 O   0  0  0  0  0  0  0  0  0  0  0  0
    0.0000    0.0000    0.0000 C   0  0  0  0  0  0  0  0  0  0  0  0
   -1.2990    0.7500    0.0000 C   0  0  0  0  0  0  0  0  0  0  0  0
   -2.5981    0.0000    0.0000 S   0  0  0  0  0  0  0  0  0  0  0  0
   -3.8971    0.7500    0.0000 C   0  0  0  0  0  0  0  0  0  0  0  0
   -3.8971    2.2500    0.0000 C   0  0  0  0  0  0  0  0  0  0  0  0
   -5.1962    3.0000    0.0000 O   0  0  0  0  0  0  0  0  0  0  0  0
   -5.1962    0.0000    0.0000 C   0  0  0  0  0  0  0  0  0  0  0  0
   -6.4952    0.7500    0.0000 C   0  0  0  0  0  0  0  0  0  0  0  0
   -7.7942    0.0000    0.0000 O   0  0  0  0  0  0  0  0  0  0  0  0
   -5.1962   -1.5000    0.0000 C   0  0  0  0  0  0  0  0  0  0  0  0
   -6.6962   -1.5000    0.0000 F   0  0  0  0  0  0  0  0  0  0  0  0
   -3.6962   -1.5000    0.0000 F   0  0  0  0  0  0  0  0  0  0  0  0
   -5.1962   -3.0000    0.0000 C   0  0  0  0  0  0  0  0  0  0  0  0
   -3.6962   -3.0000    0.0000 F   0  0  0  0  0  0  0  0  0  0  0  0
   -6.6962   -3.0000    0.0000 F   0  0  0  0  0  0  0  0  0  0  0  0
   -5.1962   -4.5000    0.0000 C   0  0  0  0  0  0  0  0  0  0  0  0
   -6.6962   -4.5000    0.0000 F   0  0  0  0  0  0  0  0  0  0  0  0
   -3.6962   -4.5000    0.0000 F   0  0  0  0  0  0  0  0  0  0  0  0
   -5.1962   -6.0000    0.0000 C   0  0  0  0  0  0  0  0  0  0  0  0
   -3.6962   -6.0000    0.0000 F   0  0  0  0  0  0  0  0  0  0  0  0
   -6.6962   -6.0000    0.0000 F   0  0  0  0  0  0  0  0  0  0  0  0
   -5.1962   -7.5000    0.0000 C   0  0  0  0  0  0  0  0  0  0  0  0
   -6.6962   -7.5000    0.0000 F   0  0  0  0  0  0  0  0  0  0  0  0
   -3.6962   -7.5000    0.0000 F   0  0  0  0  0  0  0  0  0  0  0  0
   -5.1962   -9.0000    0.0000 C   0  0  0  0  0  0  0  0  0  0  0  0
   -3.6962   -9.0000    0.0000 F   0  0  0  0  0  0  0  0  0  0  0  0
   -6.6962   -9.0000    0.0000 F   0  0  0  0  0  0  0  0  0  0  0  0
   -5.1962  -10.5000    0.0000 C   0  0  0  0  0  0  0  0  0  0  0  0
   -6.6962  -10.5000    0.0000 F   0  0  0  0  0  0  0  0  0  0  0  0
   -3.6962  -10.5000    0.0000 F   0  0  0  0  0  0  0  0  0  0  0  0
   -5.1962  -12.0000    0.0000 C   0  0  0  0  0  0  0  0  0  0  0  0
   -3.6962  -12.0000    0.0000 F   0  0  0  0  0  0  0  0  0  0  0  0
   -6.6962  -12.0000    0.0000 F   0  0  0  0  0  0  0  0  0  0  0  0
   -5.1962  -13.5000    0.0000 C   0  0  0  0  0  0  0  0  0  0  0  0
   -6.6962  -13.5000    0.0000 F   0  0  0  0  0  0  0  0  0  0  0  0
   -3.6962  -13.5000    0.0000 F   0  0  0  0  0  0  0  0  0  0  0  0
   -5.1962  -15.0000    0.0000 C   0  0  0  0  0  0  0  0  0  0  0  0
   -3.6962  -15.0000    0.0000 F   0  0  0  0  0  0  0  0  0  0  0  0
   -6.6962  -15.0000    0.0000 F   0  0  0  0  0  0  0  0  0  0  0  0
   -5.1962  -16.5000    0.0000 C   0  0  0  0  0  0  0  0  0  0  0  0
   -6.6962  -16.5000    0.0000 F   0  0  0  0  0  0  0  0  0  0  0  0
   -3.6962  -16.5000    0.0000 F   0  0  0  0  0  0  0  0  0  0  0  0
   -5.1962  -18.0000    0.0000 C   0  0  0  0  0  0  0  0  0  0  0  0
   -3.6962  -18.0000    0.0000 F   0  0  0  0  0  0  0  0  0  0  0  0
   -6.6962  -18.0000    0.0000 F   0  0  0  0  0  0  0  0  0  0  0  0
   -5.1962  -19.5000    0.0000 C   0  0  0  0  0  0  0  0  0  0  0  0
   -6.6962  -19.5000    0.0000 F   0  0  0  0  0  0  0  0  0  0  0  0
   -3.6962  -19.5000    0.0000 F   0  0  0  0  0  0  0  0  0  0  0  0
   -5.1962  -21.0000    0.0000 C   0  0  0  0  0  0  0  0  0  0  0  0
   -5.1962  -22.5000    0.0000 F   0  0  0  0  0  0  0  0  0  0  0  0
   -3.6962  -21.0000    0.0000 F   0  0  0  0  0  0  0  0  0  0  0  0
   -6.6962  -21.0000    0.0000 F   0  0  0  0  0  0  0  0  0  0  0  0
  1  2  2  0
  2  3  1  0
  2  4  1  0
  4  5  1  0
  5  6  1  0
  6  7  1  0
  7  8  1  0
  8  9  1  0
  7 10  1  0
 10 11  1  0
 11 12  1  0
 10 13  1  0
 13 14  1  0
 13 15  1  0
 13 16  1  0
 16 17  1  0
 16 18  1  0
 16 19  1  0
 19 20  1  0
 19 21  1  0
 19 22  1  0
 22 23  1  0
 22 24  1  0
 22 25  1  0
 25 26  1  0
 25 27  1  0
 25 28  1  0
 28 29  1  0
 28 30  1  0
 28 31  1  0
 31 32  1  0
 31 33  1  0
 31 34  1  0
 34 35  1  0
 34 36  1  0
 34 37  1  0
 37 38  1  0
 37 39  1  0
 37 40  1  0
 40 41  1  0
 40 42  1  0
 40 43  1  0
 43 44  1  0
 43 45  1  0
 43 46  1  0
 46 47  1  0
 46 48  1  0
 46 49  1  0
 49 50  1  0
 49 51  1  0
 49 52  1  0
 52 53  1  0
 52 54  1  0
 52 55  1  0
M  END
$$$$

     RDKit          2D

 18 17  0  0  0  0  0  0  0  0999 V2000
    0.0000    0.0000    0.0000 C   0  0  0  0  0  0  0  0  0  0  0  0
    1.2990    0.7500    0.0000 C   0  0  0  0  0  0  0  0  0  0  0  0
    1.2990    2.2500    0.0000 O   0  0  0  0  0  0  0  0  0  0  0  0
    2.5981   -0.0000    0.0000 N   0  0  0  0  0  0  0  0  0  0  0  0
    3.8971    0.7500    0.0000 C   0  0  0  0  0  0  0  0  0  0  0  0
    3.8971    2.2500    0.0000 C   0  0  0  0  0  0  0  0  0  0  0  0
    5.1962    3.0000    0.0000 S   0  0  0  0  0  0  0  0  0  0  0  0
    5.1962    4.5000    0.0000 C   0  0  0  0  0  0  0  0  0  0  0  0
    3.8971    5.2500    0.0000 F   0  0  0  0  0  0  0  0  0  0  0  0
    6.4952    5.2500    0.0000 C   0  0  0  0  0  0  0  0  0  0  0  0
    7.7942    4.5000    0.0000 F   0  0  0  0  0  0  0  0  0  0  0  0
    6.4952    6.7500    0.0000 C   0  0  0  0  0  0  0  0  0  0  0  0
    6.4952    8.2500    0.0000 F   0  0  0  0  0  0  0  0  0  0  0  0
    7.9952    6.7500    0.0000 F   0  0  0  0  0  0  0  0  0  0  0  0
    4.9952    6.7500    0.0000 F   0  0  0  0  0  0  0  0  0  0  0  0
    5.1962   -0.0000    0.0000 C   0  0  0  0  0  0  0  0  0  0  0  0
    5.1962   -1.5000    0.0000 O   0  0  0  0  0  0  0  0  0  0  0  0
    6.4952    0.7500    0.0000 O   0  0  0  0  0  0  0  0  0  0  0  0
  1  2  1  0
  2  3  2  0
  2  4  1  0
  4  5  1  0
  5  6  1  1
  6  7  1  0
  7  8  1  0
  8  9  1  0
  8 10  2  3
 10 11  1  0
 10 12  1  0
 12 13  1  0
 12 14  1  0
 12 15  1  0
  5 16  1  0
 16 17  2  0
 16 18  1  0
M  END
$$$$

     RDKit          2D

 53 52  0  0  0  0  0  0  0  0999 V2000
   -0.5490   -3.5490    0.0000 O   0  0  0  0  0  0  0  0  0  0  0  0
   -1.2990   -2.2500    0.0000 S   0  0  0  0  0  0  0  0  0  0  0  0
   -2.0490   -0.9510    0.0000 O   0  0  0  0  0  0  0  0  0  0  0  0
   -2.5981   -3.0000    0.0000 O   0  0  0  0  0  0  0  0  0  0  0  0
   -0.0000   -1.5000    0.0000 C   0  0  0  0  0  0  0  0  0  0  0  0
    1.2990   -2.2500    0.0000 O   0  0  0  0  0  0  0  0  0  0  0  0
   -0.0000    0.0000    0.0000 C   0  0  0  0  0  0  0  0  0  0  0  0
    1.2990    0.7500    0.0000 C   0  0  0  0  0  0  0  0  0  0  0  0
    2.0490   -0.5490    0.0000 F   0  0  0  0  0  0  0  0  0  0  0  0
    0.5490    2.0490    0.0000 F   0  0  0  0  0  0  0  0  0  0  0  0
    2.5981    1.5000    0.0000 C   0  0  0  0  0  0  0  0  0  0  0  0
    1.8481    2.7990    0.0000 F   0  0  0  0  0  0  0  0  0  0  0  0
    3.3481    0.2010    0.0000 F   0  0  0  0  0  0  0  0  0  0  0  0
    3.8971    2.2500    0.0000 C   0  0  0  0  0  0  0  0  0  0  0  0
    4.6471    0.9510    0.0000 F   0  0  0  0  0  0  0  0  0  0  0  0
    3.1471    3.5490    0.0000 F   0  0  0  0  0  0  0  0  0  0  0  0
    5.1962    3.0000    0.0000 C   0  0  0  0  0  0  0  0  0  0  0  0
    4.4462    4.2990    0.0000 F   0  0  0  0  0  0  0  0  0  0  0  0
    5.9462    1.7010    0.0000 F   0  0  0  0  0  0  0  0  0  0  0  0
    6.4952    3.7500    0.0000 C   0  0  0  0  0  0  0  0  0  0  0  0
    7.2452    2.4510    0.0000 F   0  0  0  0  0  0  0  0  0  0  0  0
    5.7452    5.0490    0.0000 F   0  0  0  0  0  0  0  0  0  0  0  0
    7.7942    4.5000    0.0000 C   0  0  0  0  0  0  0  0  0  0  0  0
    7.0442    5.7990    0.0000 F   0  0  0  0  0  0  0  0  0  0  0  0
    8.5442    3.2010    0.0000 F   0  0  0  0  0  0  0  0  0  0  0  0
    9.0933    5.2500    0.0000 C   0  0  0  0  0  0  0  0  0  0  0  0
    9.8433    3.9510    0.0000 F   0  0  0  0  0  0  0  0  0  0  0  0
    8.3433    6.5490    0.0000 F   0  0  0  0  0  0  0  0  0  0  0  0
   10.3923    6.0000    0.0000 C   0  0  0  0  0  0  0  0  0  0  0  0
    9.6423    7.2990    0.0000 F   0  0  0  0  0  0  0  0  0  0  0  0
   11.1423    4.7010    0.0000 F   0  0  0  0  0  0  0  0  0  0  0  0
   11.6913    6.7500    0.0000 C   0  0  0  0  0  0  0  0  0  0  0  0
   12.4413    5.4510    0.0000 F   0  0  0  0  0  0  0  0  0  0  0  0
   10.9413    8.0490    0.0000 F   0  0  0  0  0  0  0  0  0  0  0  0
   12.9904    7.5000    0.0000 C   0  0  0  0  0  0  0  0  0  0  0  0
   12.2404    8.7990    0.0000 F   0  0  0  0  0  0  0  0  0  0  0  0
   13.7404    6.2010    0.0000 F   0  0  0  0  0  0  0  0  0  0  0  0
   14.2894    8.2500    0.0000 C   0  0  0  0  0  0  0  0  0  0  0  0
   15.0394    6.9510    0.0000 F   0  0  0  0  0  0  0  0  0  0  0  0
   13.5394    9.5490    0.0000 F   0  0  0  0  0  0  0  0  0  0  0  0
   15.5885    9.0000    0.0000 C   0  0  0  0  0  0  0  0  0  0  0  0
   14.8385   10.2990    0.0000 F   0  0  0  0  0  0  0  0  0  0  0  0
   16.3385    7.7010    0.0000 F   0  0  0  0  0  0  0  0  0  0  0  0
   16.8875    9.7500    0.0000 C   0  0  0  0  0  0  0  0  0  0  0  0
   17.6375    8.4510    0.0000 F   0  0  0  0  0  0  0  0  0  0  0  0
   16.1375   11.0490    0.0000 F   0  0  0  0  0  0  0  0  0  0  0  0
   18.1865   10.5000    0.0000 C   0  0  0  0  0  0  0  0  0  0  0  0
   17.4365   11.7990    0.0000 F   0  0  0  0  0  0  0  0  0  0  0  0
   18.9365    9.2010    0.0000 F   0  0  0  0  0  0  0  0  0  0  0  0
   19.4856   11.2500    0.0000 C   0  0  0  0  0  0  0  0  0  0  0  0
   20.7846   12.0000    0.0000 F   0  0  0  0  0  0  0  0  0  0  0  0
   20.2356    9.9510    0.0000 F   0  0  0  0  0  0  0  0  0  0  0  0
   18.7356   12.5490    0.0000 F   0  0  0  0  0  0  0  0  0  0  0  0
  1  2  2  0
  2  3  2  0
  2  4  1  0
  2  5  1  0
  5  6  1  0
  5  7  1  0
  7  8  1  0
  8  9  1  0
  8 10  1  0
  8 11  1  0
 11 12  1  0
 11 13  1  0
 11 14  1  0
 14 15  1  0
 14 16  1  0
 14 17  1  0
 17 18  1  0
 17 19  1  0
 17 20  1  0
 20 21  1  0
 20 22  1  0
 20 23  1  0
 23 24  1  0
 23 25  1  0
 23 26  1  0
 26 27  1  0
 26 28  1  0
 26 29  1  0
 29 30  1  0
 29 31  1  0
 29 32  1  0
 32 33  1  0
 32 34  1  0
 32 35  1  0
 35 36  1  0
 35 37  1  0
 35 38  1  0
 38 39  1  0
 38 40  1  0
 38 41  1  0
 41 42  1  0
 41 43  1  0
 41 44  1  0
 44 45  1  0
 44 46  1  0
 44 47  1  0
 47 48  1  0
 47 49  1  0
 47 50  1  0
 50 51  1  0
 50 52  1  0
 50 53  1  0
M  END
$$$$

     RDKit          2D

 11 10  0  0  0  0  0  0  0  0999 V2000
   -1.5000    0.0000    0.0000 F   0  0  0  0  0  0  0  0  0  0  0  0
    0.0000    0.0000    0.0000 C   0  0  0  0  0  0  0  0  0  0  0  0
    0.0000    1.5000    0.0000 F   0  0  0  0  0  0  0  0  0  0  0  0
   -0.0000   -1.5000    0.0000 Cl  0  0  0  0  0  0  0  0  0  0  0  0
    1.5000    0.0000    0.0000 C   0  0  0  0  0  0  0  0  0  0  0  0
    1.5000   -1.5000    0.0000 F   0  0  0  0  0  0  0  0  0  0  0  0
    1.5000    1.5000    0.0000 F   0  0  0  0  0  0  0  0  0  0  0  0
    3.0000    0.0000    0.0000 C   0  0  0  0  0  0  0  0  0  0  0  0
    4.5000    0.0000    0.0000 F   0  0  0  0  0  0  0  0  0  0  0  0
    3.0000    1.5000    0.0000 Cl  0  0  0  0  0  0  0  0  0  0  0  0
    3.0000   -1.5000    0.0000 Cl  0  0  0  0  0  0  0  0  0  0  0  0
  1  2  1  0
  2  3  1  0
  2  4  1  0
  2  5  1  0
  5  6  1  0
  5  7  1  0
  5  8  1  0
  8  9  1  0
  8 10  1  0
  8 11  1  0
M  END
$$$$

     RDKit          2D

 18 17  0  0  0  0  0  0  0  0999 V2000
    0.0000    0.0000    0.0000 C   0  0  0  0  0  0  0  0  0  0  0  0
    1.2990    0.7500    0.0000 O   0  0  0  0  0  0  0  0  0  0  0  0
    2.5981   -0.0000    0.0000 C   0  0  0  0  0  0  0  0  0  0  0  0
    2.5981   -1.5000    0.0000 O   0  0  0  0  0  0  0  0  0  0  0  0
    3.8971    0.7500    0.0000 C   0  0  0  0  0  0  0  0  0  0  0  0
    5.1962   -0.0000    0.0000 C   0  0  0  0  0  0  0  0  0  0  0  0
    6.4952    0.7500    0.0000 C   0  0  0  0  0  0  0  0  0  0  0  0
    7.7942   -0.0000    0.0000 C   0  0  0  0  0  0  0  0  0  0  0  0
    8.5442    1.2990    0.0000 F   0  0  0  0  0  0  0  0  0  0  0  0
    7.0442   -1.2990    0.0000 F   0  0  0  0  0  0  0  0  0  0  0  0
    9.0933   -0.7500    0.0000 C   0  0  0  0  0  0  0  0  0  0  0  0
   10.3923   -1.5000    0.0000 F   0  0  0  0  0  0  0  0  0  0  0  0
    8.3433   -2.0490    0.0000 F   0  0  0  0  0  0  0  0  0  0  0  0
    9.8433    0.5490    0.0000 F   0  0  0  0  0  0  0  0  0  0  0  0
    3.8971    2.2500    0.0000 C   0  0  0  0  0  0  0  0  0  0  0  0
    2.5981    3.0000    0.0000 O   0  0  0  0  0  0  0  0  0  0  0  0
    5.1962    3.0000    0.0000 O   0  0  0  0  0  0  0  0  0  0  0  0
    5.1962    4.5000    0.0000 C   0  0  0  0  0  0  0  0  0  0  0  0
  1  2  1  0
  2  3  1  0
  3  4  2  0
  3  5  1  0
  5  6  1  0
  6  7  1  0
  7  8  1  0
  8  9  1  0
  8 10  1  0
  8 11  1  0
 11 12  1  0
 11 13  1  0
 11 14  1  0
  5 15  1  0
 15 16  2  0
 15 17  1  0
 17 18  1  0
M  END
$$$$

     RDKit          2D

 25 23  0  0  0  0  0  0  0  0999 V2000
   -3.8971    2.2500    0.0000 O   0  0  0  0  0  0  0  0  0  0  0  0
   -3.8971    0.7500    0.0000 C   0  0  0  0  0  0  0  0  0  0  0  0
   -5.1962    0.0000    0.0000 O   0  0  0  0  0  0  0  0  0  0  0  0
   -2.5981    0.0000    0.0000 C   0  0  0  0  0  0  0  0  0  0  0  0
   -1.2990    0.7500    0.0000 S   0  0  0  0  0  0  0  0  0  0  0  0
    0.0000    0.0000    0.0000 C   0  0  0  0  0  0  0  0  0  0  0  0
    1.2990    0.7500    0.0000 C   0  0  0  0  0  0  0  0  0  0  0  0
    2.5981   -0.0000    0.0000 C   0  0  0  0  0  0  0  0  0  0  0  0
    3.3481    1.2990    0.0000 F   0  0  0  0  0  0  0  0  0  0  0  0
    1.8481   -1.2990    0.0000 F   0  0  0  0  0  0  0  0  0  0  0  0
    3.8971   -0.7500    0.0000 C   0  0  0  0  0  0  0  0  0  0  0  0
    5.1962   -1.5000    0.0000 F   0  0  0  0  0  0  0  0  0  0  0  0
    3.1471   -2.0490    0.0000 F   0  0  0  0  0  0  0  0  0  0  0  0
    4.6471    0.5490    0.0000 F   0  0  0  0  0  0  0  0  0  0  0  0
   -2.5981   -1.5000    0.0000 S   0  0  0  0  0  0  0  0  0  0  0  0
   -3.8971   -2.2500    0.0000 C   0  0  0  0  0  0  0  0  0  0  0  0
   -3.8971   -3.7500    0.0000 C   0  0  0  0  0  0  0  0  0  0  0  0
   -5.1962   -4.5000    0.0000 C   0  0  0  0  0  0  0  0  0  0  0  0
   -4.4462   -5.7990    0.0000 F   0  0  0  0  0  0  0  0  0  0  0  0
   -5.9462   -3.2010    0.0000 F   0  0  0  0  0  0  0  0  0  0  0  0
   -6.4952   -5.2500    0.0000 C   0  0  0  0  0  0  0  0  0  0  0  0
   -7.7942   -6.0000    0.0000 F   0  0  0  0  0  0  0  0  0  0  0  0
   -7.2452   -3.9510    0.0000 F   0  0  0  0  0  0  0  0  0  0  0  0
   -5.7452   -6.5490    0.0000 F   0  0  0  0  0  0  0  0  0  0  0  0
    0.0000    3.2500    0.0000 Na  0  0  0  0  0 15  0  0  0  0  0  0
  1  2  2  0
  2  3  1  0
  2  4  1  0
  4  5  1  0
  5  6  1  0
  6  7  1  0
  7  8  1  0
  8  9  1  0
  8 10  1  0
  8 11  1  0
 11 12  1  0
 11 13  1  0
 11 14  1  0
  4 15  1  0
 15 16  1  0
 16 17  1  0
 17 18  1  0
 18 19  1  0
 18 20  1  0
 18 21  1  0
 21 22  1  0
 21 23  1  0
 21 24  1  0
M  CHG  2   3  -1  25   1
M  END
$$$$

     RDKit          2D

 27 26  0  0  0  0  0  0  0  0999 V2000
    0.0000    0.0000    0.0000 C   0  0  0  0  0  0  0  0  0  0  0  0
    1.2990    0.7500    0.0000 C   0  0  0  0  0  0  0  0  0  0  0  0
    2.5981    1.5000    0.0000 C   0  0  0  0  0  0  0  0  0  0  0  0
    2.5981    3.0000    0.0000 C   0  0  0  0  0  0  0  0  0  0  0  0
    3.8971    3.7500    0.0000 C   0  0  0  0  0  0  0  0  0  0  0  0
    5.1962    3.0000    0.0000 O   0  0  0  0  0  0  0  0  0  0  0  0
    3.8971    5.2500    0.0000 O   0  0  0  0  0  0  0  0  0  0  0  0
    2.0490   -0.5490    0.0000 S   0  0  0  0  0  0  0  0  0  0  0  0
    3.5490   -0.5490    0.0000 C   0  0  0  0  0  0  0  0  0  0  0  0
    4.2990   -1.8481    0.0000 C   0  0  0  0  0  0  0  0  0  0  0  0
    5.7990   -1.8481    0.0000 C   0  0  0  0  0  0  0  0  0  0  0  0
    5.7990   -3.3481    0.0000 F   0  0  0  0  0  0  0  0  0  0  0  0
    5.7990   -0.3481    0.0000 F   0  0  0  0  0  0  0  0  0  0  0  0
    7.2990   -1.8481    0.0000 C   0  0  0  0  0  0  0  0  0  0  0  0
    8.7990   -1.8481    0.0000 F   0  0  0  0  0  0  0  0  0  0  0  0
    7.2990   -0.3481    0.0000 F   0  0  0  0  0  0  0  0  0  0  0  0
    7.2990   -3.3481    0.0000 F   0  0  0  0  0  0  0  0  0  0  0  0
    0.5490    2.0490    0.0000 S   0  0  0  0  0  0  0  0  0  0  0  0
    1.2990    3.3481    0.0000 C   0  0  0  0  0  0  0  0  0  0  0  0
    0.5490    4.6471    0.0000 C   0  0  0  0  0  0  0  0  0  0  0  0
    1.2990    5.9462    0.0000 C   0  0  0  0  0  0  0  0  0  0  0  0
    0.0000    6.6962    0.0000 F   0  0  0  0  0  0  0  0  0  0  0  0
    2.5981    5.1962    0.0000 F   0  0  0  0  0  0  0  0  0  0  0  0
    2.0490    7.2452    0.0000 C   0  0  0  0  0  0  0  0  0  0  0  0
    2.7990    8.5442    0.0000 F   0  0  0  0  0  0  0  0  0  0  0  0
    3.3481    6.4952    0.0000 F   0  0  0  0  0  0  0  0  0  0  0  0
    0.7500    7.9952    0.0000 F   0  0  0  0  0  0  0  0  0  0  0  0
  1  2  1  0
  2  3  1  0
  3  4  1  0
  4  5  1  0
  5  6  2  0
  5  7  1  0
  2  8  1  0
  8  9  1  0
  9 10  1  0
 10 11  1  0
 11 12  1  0
 11 13  1  0
 11 14  1  0
 14 15  1  0
 14 16  1  0
 14 17  1  0
  2 18  1  0
 18 19  1  0
 19 20  1  0
 20 21  1  0
 21 22  1  0
 21 23  1  0
 21 24  1  0
 24 25  1  0
 24 26  1  0
 24 27  1  0
M  END
$$$$

     RDKit          2D

 15 14  0  0  0  0  0  0  0  0999 V2000
    1.2990    2.2500    0.0000 O   0  0  0  0  0  0  0  0  0  0  0  0
    1.2990    0.7500    0.0000 C   0  0  0  0  0  0  0  0  0  0  0  0
    2.5981   -0.0000    0.0000 O   0  0  0  0  0  0  0  0  0  0  0  0
    0.0000    0.0000    0.0000 C   0  0  0  0  0  0  0  0  0  0  0  0
   -1.2990    0.7500    0.0000 C   0  0  0  0  0  0  0  0  0  0  0  0
   -2.5981    0.0000    0.0000 S   0  0  0  0  0  0  0  0  0  0  0  0
   -3.8971    0.7500    0.0000 C   0  0  0  0  0  0  0  0  0  0  0  0
   -5.1962    0.0000    0.0000 C   0  0  0  0  0  0  0  0  0  0  0  0
   -6.4952    0.7500    0.0000 C   0  0  0  0  0  0  0  0  0  0  0  0
   -7.2452   -0.5490    0.0000 F   0  0  0  0  0  0  0  0  0  0  0  0
   -5.7452    2.0490    0.0000 F   0  0  0  0  0  0  0  0  0  0  0  0
   -7.7942    1.5000    0.0000 C   0  0  0  0  0  0  0  0  0  0  0  0
   -9.0933    2.2500    0.0000 F   0  0  0  0  0  0  0  0  0  0  0  0
   -7.0442    2.7990    0.0000 F   0  0  0  0  0  0  0  0  0  0  0  0
   -8.5442    0.2010    0.0000 F   0  0  0  0  0  0  0  0  0  0  0  0
  1  2  2  0
  2  3  1  0
  2  4  1  0
  4  5  1  0
  5  6  1  0
  6  7  1  0
  7  8  1  0
  8  9  1  0
  9 10  1  0
  9 11  1  0
  9 12  1  0
 12 13  1  0
 12 14  1  0
 12 15  1  0
M  END
$$$$

     RDKit          2D

 11 10  0  0  0  0  0  0  0  0999 V2000
   -2.5981    0.0000    0.0000 O   0  0  0  0  0  0  0  0  0  0  0  0
   -1.2990    0.7500    0.0000 C   0  0  0  0  0  0  0  0  0  0  0  0
   -1.2990    2.2500    0.0000 Cl  0  0  0  0  0  0  0  0  0  0  0  0
    0.0000    0.0000    0.0000 C   0  0  0  0  0  0  0  0  0  0  0  0
    1.2990    0.7500    0.0000 C   0  0  0  0  0  0  0  0  0  0  0  0
    2.0490   -0.5490    0.0000 F   0  0  0  0  0  0  0  0  0  0  0  0
    0.5490    2.0490    0.0000 F   0  0  0  0  0  0  0  0  0  0  0  0
    2.5981    1.5000    0.0000 C   0  0  0  0  0  0  0  0  0  0  0  0
    3.8971    2.2500    0.0000 F   0  0  0  0  0  0  0  0  0  0  0  0
    1.8481    2.7990    0.0000 F   0  0  0  0  0  0  0  0  0  0  0  0
    3.3481    0.2010    0.0000 F   0  0  0  0  0  0  0  0  0  0  0  0
  1  2  2  0
  2  3  1  0
  2  4  1  0
  4  5  1  0
  5  6  1  0
  5  7  1  0
  5  8  1  0
  8  9  1  0
  8 10  1  0
  8 11  1  0
M  END
$$$$

     RDKit          2D

 67 66  0  0  0  0  0  0  0  0999 V2000
    0.0000    0.0000    0.0000 C   0  0  0  0  0  0  0  0  0  0  0  0
    1.2990    0.7500    0.0000 C   0  0  0  0  0  0  0  0  0  0  0  0
    2.5981   -0.0000    0.0000 C   0  0  0  0  0  0  0  0  0  0  0  0
    3.8971    0.7500    0.0000 C   0  0  0  0  0  0  0  0  0  0  0  0
    5.1962   -0.0000    0.0000 C   0  0  0  0  0  0  0  0  0  0  0  0
    6.4952    0.7500    0.0000 C   0  0  0  0  0  0  0  0  0  0  0  0
    7.7942   -0.0000    0.0000 C   0  0  0  0  0  0  0  0  0  0  0  0
    9.0933    0.7500    0.0000 C   0  0  0  0  0  0  0  0  0  0  0  0
   10.3923   -0.0000    0.0000 C   0  0  0  0  0  0  0  0  0  0  0  0
   11.6913    0.7500    0.0000 C   0  0  0  0  0  0  0  0  0  0  0  0
   12.9904   -0.0000    0.0000 C   0  0  0  0  0  0  0  0  0  0  0  0
   14.2894    0.7500    0.0000 C   0  0  0  0  0  0  0  0  0  0  0  0
   15.5885   -0.0000    0.0000 C   0  0  0  0  0  0  0  0  0  0  0  0
   16.8875    0.7500    0.0000 C   0  0  0  0  0  0  0  0  0  0  0  0
   18.1865   -0.0000    0.0000 C   0  0  0  0  0  0  0  0  0  0  0  0
   19.4856    0.7500    0.0000 C   0  0  0  0  0  0  0  0  0  0  0  0
   20.7846   -0.0000    0.0000 C   0  0  0  0  0  0  0  0  0  0  0  0
   22.0836    0.7500    0.0000 C   0  0  0  0  0  0  0  0  0  0  0  0
   23.3827   -0.0000    0.0000 C   0  0  0  0  0  0  0  0  0  0  0  0
   23.3827   -1.5000    0.0000 O   0  0  0  0  0  0  0  0  0  0  0  0
   24.6817    0.7500    0.0000 O   0  0  0  0  0  0  0  0  0  0  0  0
   20.7846   -1.5000    0.0000 C   0  0  0  0  0  0  0  0  0  0  0  0
   19.4856   -2.2500    0.0000 O   0  0  0  0  0  0  0  0  0  0  0  0
   22.0836   -2.2500    0.0000 O   0  0  0  0  0  0  0  0  0  0  0  0
   22.0836   -3.7500    0.0000 C   0  0  0  0  0  0  0  0  0  0  0  0
   23.3827   -4.5000    0.0000 C   0  0  0  0  0  0  0  0  0  0  0  0
   22.6327   -5.7990    0.0000 F   0  0  0  0  0  0  0  0  0  0  0  0
   24.1327   -3.2010    0.0000 F   0  0  0  0  0  0  0  0  0  0  0  0
   24.6817   -5.2500    0.0000 C   0  0  0  0  0  0  0  0  0  0  0  0
   25.4317   -3.9510    0.0000 F   0  0  0  0  0  0  0  0  0  0  0  0
   23.9317   -6.5490    0.0000 F   0  0  0  0  0  0  0  0  0  0  0  0
   25.9808   -6.0000    0.0000 C   0  0  0  0  0  0  0  0  0  0  0  0
   25.2308   -7.2990    0.0000 F   0  0  0  0  0  0  0  0  0  0  0  0
   26.7308   -4.7010    0.0000 F   0  0  0  0  0  0  0  0  0  0  0  0
   27.2798   -6.7500    0.0000 C   0  0  0  0  0  0  0  0  0  0  0  0
   28.0298   -5.4510    0.0000 F   0  0  0  0  0  0  0  0  0  0  0  0
   26.5298   -8.0490    0.0000 F   0  0  0  0  0  0  0  0  0  0  0  0
   28.5788   -7.5000    0.0000 O   0  0  0  0  0  0  0  0  0  0  0  0
   28.5788   -9.0000    0.0000 C   0  0  0  0  0  0  0  0  0  0  0  0
   27.0788   -9.0000    0.0000 F   0  0  0  0  0  0  0  0  0  0  0  0
   30.0788   -9.0000    0.0000 F   0  0  0  0  0  0  0  0  0  0  0  0
   28.5788  -10.5000    0.0000 C   0  0  0  0  0  0  0  0  0  0  0  0
   30.0788  -10.5000    0.0000 F   0  0  0  0  0  0  0  0  0  0  0  0
   27.0788  -10.5000    0.0000 F   0  0  0  0  0  0  0  0  0  0  0  0
   28.5788  -12.0000    0.0000 C   0  0  0  0  0  0  0  0  0  0  0  0
   30.0788  -12.0000    0.0000 F   0  0  0  0  0  0  0  0  0  0  0  0
   27.0788  -12.0000    0.0000 F   0  0  0  0  0  0  0  0  0  0  0  0
   28.5788  -13.5000    0.0000 C   0  0  0  0  0  0  0  0  0  0  0  0
   27.0788  -13.5000    0.0000 F   0  0  0  0  0  0  0  0  0  0  0  0
   30.0788  -13.5000    0.0000 F   0  0  0  0  0  0  0  0  0  0  0  0
   28.5788  -15.0000    0.0000 C   0  0  0  0  0  0  0  0  0  0  0  0
   30.0788  -15.0000    0.0000 F   0  0  0  0  0  0  0  0  0  0  0  0
   27.0788  -15.0000    0.0000 F   0  0  0  0  0  0  0  0  0  0  0  0
   28.5788  -16.5000    0.0000 O   0  0  0  0  0  0  0  0  0  0  0  0
   27.2798  -17.2500    0.0000 C   0  0  0  0  0  0  0  0  0  0  0  0
   26.5298  -15.9510    0.0000 F   0  0  0  0  0  0  0  0  0  0  0  0
   28.0298  -18.5490    0.0000 F   0  0  0  0  0  0  0  0  0  0  0  0
   25.9808  -18.0000    0.0000 C   0  0  0  0  0  0  0  0  0  0  0  0
   26.7308  -19.2990    0.0000 F   0  0  0  0  0  0  0  0  0  0  0  0
   25.2308  -16.7010    0.0000 F   0  0  0  0  0  0  0  0  0  0  0  0
   24.6817  -18.7500    0.0000 C   0  0  0  0  0  0  0  0  0  0  0  0
   25.4317  -20.0490    0.0000 F   0  0  0  0  0  0  0  0  0  0  0  0
   23.9317  -17.4510    0.0000 F   0  0  0  0  0  0  0  0  0  0  0  0
   23.3827  -19.5000    0.0000 C   0  0  0  0  0  0  0  0  0  0  0  0
   22.0836  -20.2500    0.0000 F   0  0  0  0  0  0  0  0  0  0  0  0
   22.6327  -18.2010    0.0000 F   0  0  0  0  0  0  0  0  0  0  0  0
   24.1327  -20.7990    0.0000 F   0  0  0  0  0  0  0  0  0  0  0  0
  1  2  1  0
  2  3  1  0
  3  4  1  0
  4  5  1  0
  5  6  1  0
  6  7  1  0
  7  8  1  0
  8  9  1  0
  9 10  1  0
 10 11  1  0
 11 12  1  0
 12 13  1  0
 13 14  1  0
 14 15  1  0
 15 16  1  0
 16 17  1  0
 17 18  1  0
 18 19  1  0
 19 20  2  0
 19 21  1  0
 17 22  1  0
 22 23  2  0
 22 24  1  0
 24 25  1  0
 25 26  1  0
 26 27  1  0
 26 28  1  0
 26 29  1  0
 29 30  1  0
 29 31  1  0
 29 32  1  0
 32 33  1  0
 32 34  1  0
 32 35  1  0
 35 36  1  0
 35 37  1  0
 35 38  1  0
 38 39  1  0
 39 40  1  0
 39 41  1  0
 39 42  1  0
 42 43  1  0
 42 44  1  0
 42 45  1  0
 45 46  1  0
 45 47  1  0
 45 48  1  0
 48 49  1  0
 48 50  1  0
 48 51  1  0
 51 52  1  0
 51 53  1  0
 51 54  1  0
 54 55  1  0
 55 56  1  0
 55 57  1  0
 55 58  1  0
 58 59  1  0
 58 60  1  0
 58 61  1  0
 61 62  1  0
 61 63  1  0
 61 64  1  0
 64 65  1  0
 64 66  1  0
 64 67  1  0
M  END
$$$$

     RDKit          2D

 23 22  0  0  0  0  0  0  0  0999 V2000
    0.0000    0.0000    0.0000 C   0  0  0  0  0  0  0  0  0  0  0  0
    1.2990    0.7500    0.0000 N   0  0  0  0  0  0  0  0  0  0  0  0
    2.5981   -0.0000    0.0000 C   0  0  0  0  0  0  0  0  0  0  0  0
    3.8971    0.7500    0.0000 C   0  0  0  0  0  0  0  0  0  0  0  0
    3.8971    2.2500    0.0000 O   0  0  0  0  0  0  0  0  0  0  0  0
    5.1962   -0.0000    0.0000 C   0  0  0  0  0  0  0  0  0  0  0  0
    6.4952    0.7500    0.0000 Cl  0  0  0  0  0  0  0  0  0  0  0  0
    1.2990    2.2500    0.0000 S   0  0  0  0  0  0  0  0  0  0  0  0
    0.5078    2.1528    0.0000 O   0  0  0  0  0  0  0  0  0  0  0  0
    2.7990    2.2500    0.0000 O   0  0  0  0  0  0  0  0  0  0  0  0
    1.2990    3.7500    0.0000 C   0  0  0  0  0  0  0  0  0  0  0  0
    2.7990    3.7500    0.0000 F   0  0  0  0  0  0  0  0  0  0  0  0
    1.2990    5.2500    0.0000 F   0  0  0  0  0  0  0  0  0  0  0  0
   -0.2010    3.7500    0.0000 C   0  0  0  0  0  0  0  0  0  0  0  0
   -0.3089    2.8709    0.0000 F   0  0  0  0  0  0  0  0  0  0  0  0
   -0.2010    5.2500    0.0000 F   0  0  0  0  0  0  0  0  0  0  0  0
   -1.7010    3.7500    0.0000 C   0  0  0  0  0  0  0  0  0  0  0  0
   -1.7010    5.2500    0.0000 F   0  0  0  0  0  0  0  0  0  0  0  0
   -1.7010    2.2500    0.0000 F   0  0  0  0  0  0  0  0  0  0  0  0
   -3.2010    3.7500    0.0000 C   0  0  0  0  0  0  0  0  0  0  0  0
   -4.7010    3.7500    0.0000 F   0  0  0  0  0  0  0  0  0  0  0  0
   -3.2010    2.2500    0.0000 F   0  0  0  0  0  0  0  0  0  0  0  0
   -3.2010    5.2500    0.0000 F   0  0  0  0  0  0  0  0  0  0  0  0
  1  2  1  0
  2  3  1  0
  3  4  1  0
  4  5  1  0
  4  6  1  0
  6  7  1  0
  2  8  1  0
  8  9  2  0
  8 10  2  0
  8 11  1  0
 11 12  1  0
 11 13  1  0
 11 14  1  0
 14 15  1  0
 14 16  1  0
 14 17  1  0
 17 18  1  0
 17 19  1  0
 17 20  1  0
 20 21  1  0
 20 22  1  0
 20 23  1  0
M  END
$$$$

     RDKit          2D

 25 24  0  0  0  0  0  0  0  0999 V2000
   -1.2990    0.7500    0.0000 O   0  0  0  0  0  0  0  0  0  0  0  0
    0.0000    0.0000    0.0000 C   0  0  0  0  0  0  0  0  0  0  0  0
    1.2990    0.7500    0.0000 C   0  0  0  0  0  0  0  0  0  0  0  0
    2.5981   -0.0000    0.0000 O   0  0  0  0  0  0  0  0  0  0  0  0
    3.8971    0.7500    0.0000 C   0  0  0  0  0  0  0  0  0  0  0  0
    5.1962   -0.0000    0.0000 C   0  0  0  0  0  0  0  0  0  0  0  0
    6.4952    0.7500    0.0000 C   0  0  0  0  0  0  0  0  0  0  0  0
    7.2452   -0.5490    0.0000 F   0  0  0  0  0  0  0  0  0  0  0  0
    5.7452    2.0490    0.0000 F   0  0  0  0  0  0  0  0  0  0  0  0
    7.7942    1.5000    0.0000 C   0  0  0  0  0  0  0  0  0  0  0  0
    7.0442    2.7990    0.0000 F   0  0  0  0  0  0  0  0  0  0  0  0
    8.5442    0.2010    0.0000 F   0  0  0  0  0  0  0  0  0  0  0  0
    9.0933    2.2500    0.0000 C   0  0  0  0  0  0  0  0  0  0  0  0
    9.8433    0.9510    0.0000 F   0  0  0  0  0  0  0  0  0  0  0  0
    8.3433    3.5490    0.0000 F   0  0  0  0  0  0  0  0  0  0  0  0
   10.3923    3.0000    0.0000 C   0  0  0  0  0  0  0  0  0  0  0  0
    9.6423    4.2990    0.0000 F   0  0  0  0  0  0  0  0  0  0  0  0
   11.1423    1.7010    0.0000 F   0  0  0  0  0  0  0  0  0  0  0  0
   11.6913    3.7500    0.0000 C   0  0  0  0  0  0  0  0  0  0  0  0
   12.4413    2.4510    0.0000 F   0  0  0  0  0  0  0  0  0  0  0  0
   10.9413    5.0490    0.0000 F   0  0  0  0  0  0  0  0  0  0  0  0
   12.9904    4.5000    0.0000 C   0  0  0  0  0  0  0  0  0  0  0  0
   14.2894    5.2500    0.0000 F   0  0  0  0  0  0  0  0  0  0  0  0
   12.2404    5.7990    0.0000 F   0  0  0  0  0  0  0  0  0  0  0  0
   13.7404    3.2010    0.0000 F   0  0  0  0  0  0  0  0  0  0  0  0
  1  2  1  0
  2  3  1  0
  3  4  1  0
  4  5  1  0
  5  6  1  0
  6  7  1  0
  7  8  1  0
  7  9  1  0
  7 10  1  0
 10 11  1  0
 10 12  1  0
 10 13  1  0
 13 14  1  0
 13 15  1  0
 13 16  1  0
 16 17  1  0
 16 18  1  0
 16 19  1  0
 19 20  1  0
 19 21  1  0
 19 22  1  0
 22 23  1  0
 22 24  1  0
 22 25  1  0
M  END
$$$$

     RDKit          2D

 28 27  0  0  0  0  0  0  0  0999 V2000
    0.0000    0.0000    0.0000 C   0  0  0  0  0  0  0  0  0  0  0  0
    1.2990    0.7500    0.0000 O   0  0  0  0  0  0  0  0  0  0  0  0
    2.5981   -0.0000    0.0000 Si  0  0  0  0  0  4  0  0  0  0  0  0
    3.8971   -0.7500    0.0000 C   0  0  0  0  0  0  0  0  0  0  0  0
    3.8971   -2.2500    0.0000 C   0  0  0  0  0  0  0  0  0  0  0  0
    5.1962   -3.0000    0.0000 C   0  0  0  0  0  0  0  0  0  0  0  0
    5.1962   -4.5000    0.0000 N   0  0  0  0  0  0  0  0  0  0  0  0
    6.4952   -5.2500    0.0000 C   0  0  0  0  0  0  0  0  0  0  0  0
    7.7942   -4.5000    0.0000 O   0  0  0  0  0  0  0  0  0  0  0  0
    6.4952   -6.7500    0.0000 C   0  0  0  0  0  0  0  0  0  0  0  0
    7.9952   -6.7500    0.0000 F   0  0  0  0  0  0  0  0  0  0  0  0
    4.9952   -6.7500    0.0000 F   0  0  0  0  0  0  0  0  0  0  0  0
    6.4952   -8.2500    0.0000 O   0  0  0  0  0  0  0  0  0  0  0  0
    5.1962   -9.0000    0.0000 C   0  0  0  0  0  0  0  0  0  0  0  0
    4.4462   -7.7010    0.0000 F   0  0  0  0  0  0  0  0  0  0  0  0
    5.9462  -10.2990    0.0000 F   0  0  0  0  0  0  0  0  0  0  0  0
    3.8971   -9.7500    0.0000 C   0  0  0  0  0  0  0  0  0  0  0  0
    3.1471   -8.4510    0.0000 F   0  0  0  0  0  0  0  0  0  0  0  0
    4.6471  -11.0490    0.0000 F   0  0  0  0  0  0  0  0  0  0  0  0
    2.5981  -10.5000    0.0000 O   0  0  0  0  0  0  0  0  0  0  0  0
    2.5981  -12.0000    0.0000 C   0  0  0  0  0  0  0  0  0  0  0  0
    2.5981  -13.5000    0.0000 F   0  0  0  0  0  0  0  0  0  0  0  0
    1.0981  -12.0000    0.0000 F   0  0  0  0  0  0  0  0  0  0  0  0
    4.0981  -12.0000    0.0000 F   0  0  0  0  0  0  0  0  0  0  0  0
    1.8481   -1.2990    0.0000 O   0  0  0  0  0  0  0  0  0  0  0  0
    2.5981   -2.5981    0.0000 C   0  0  0  0  0  0  0  0  0  0  0  0
    3.3481    1.2990    0.0000 O   0  0  0  0  0  0  0  0  0  0  0  0
    4.8481    1.2990    0.0000 C   0  0  0  0  0  0  0  0  0  0  0  0
  1  2  1  0
  2  3  1  0
  3  4  1  0
  4  5  1  0
  5  6  1  0
  6  7  1  0
  7  8  1  0
  8  9  2  0
  8 10  1  0
 10 11  1  0
 10 12  1  0
 10 13  1  0
 13 14  1  0
 14 15  1  0
 14 16  1  0
 14 17  1  0
 17 18  1  0
 17 19  1  0
 17 20  1  0
 20 21  1  0
 21 22  1  0
 21 23  1  0
 21 24  1  0
  3 25  1  0
 25 26  1  0
  3 27  1  0
 27 28  1  0
M  END
$$$$

     RDKit          2D

 32 31  0  0  0  0  0  0  0  0999 V2000
    0.0000    0.0000    0.0000 C   0  0  0  0  0  0  0  0  0  0  0  0
    1.2990    0.7500    0.0000 C   0  0  0  0  0  0  0  0  0  0  0  0
    2.5981   -0.0000    0.0000 C   0  0  0  0  0  0  0  0  0  0  0  0
    3.8971    0.7500    0.0000 O   0  0  0  0  0  0  0  0  0  0  0  0
    5.1962   -0.0000    0.0000 C   0  0  0  0  0  0  0  0  0  0  0  0
    6.4952    0.7500    0.0000 C   0  0  0  0  0  0  0  0  0  0  0  0
    7.2452   -0.5490    0.0000 F   0  0  0  0  0  0  0  0  0  0  0  0
    5.7452    2.0490    0.0000 F   0  0  0  0  0  0  0  0  0  0  0  0
    7.7942    1.5000    0.0000 C   0  0  0  0  0  0  0  0  0  0  0  0
    7.0442    2.7990    0.0000 F   0  0  0  0  0  0  0  0  0  0  0  0
    8.5442    0.2010    0.0000 F   0  0  0  0  0  0  0  0  0  0  0  0
    9.0933    2.2500    0.0000 O   0  0  0  0  0  0  0  0  0  0  0  0
   10.3923    1.5000    0.0000 C   0  0  0  0  0  0  0  0  0  0  0  0
    9.6423    0.2010    0.0000 F   0  0  0  0  0  0  0  0  0  0  0  0
   11.1423    2.7990    0.0000 F   0  0  0  0  0  0  0  0  0  0  0  0
   11.6913    0.7500    0.0000 C   0  0  0  0  0  0  0  0  0  0  0  0
   10.9413   -0.5490    0.0000 F   0  0  0  0  0  0  0  0  0  0  0  0
   12.4413    2.0490    0.0000 F   0  0  0  0  0  0  0  0  0  0  0  0
   12.9904    0.0000    0.0000 C   0  0  0  0  0  0  0  0  0  0  0  0
   13.7404    1.2990    0.0000 F   0  0  0  0  0  0  0  0  0  0  0  0
   12.2404   -1.2990    0.0000 F   0  0  0  0  0  0  0  0  0  0  0  0
   14.2894   -0.7500    0.0000 O   0  0  0  0  0  0  0  0  0  0  0  0
   14.2894   -2.2500    0.0000 C   0  0  0  0  0  0  0  0  0  0  0  0
   12.7894   -2.2500    0.0000 F   0  0  0  0  0  0  0  0  0  0  0  0
   15.7894   -2.2500    0.0000 F   0  0  0  0  0  0  0  0  0  0  0  0
   14.2894   -3.7500    0.0000 C   0  0  0  0  0  0  0  0  0  0  0  0
   12.7894   -3.7500    0.0000 F   0  0  0  0  0  0  0  0  0  0  0  0
   15.7894   -3.7500    0.0000 F   0  0  0  0  0  0  0  0  0  0  0  0
   14.2894   -5.2500    0.0000 C   0  0  0  0  0  0  0  0  0  0  0  0
   14.2894   -6.7500    0.0000 F   0  0  0  0  0  0  0  0  0  0  0  0
   15.7894   -5.2500    0.0000 F   0  0  0  0  0  0  0  0  0  0  0  0
   12.7894   -5.2500    0.0000 F   0  0  0  0  0  0  0  0  0  0  0  0
  1  2  2  0
  2  3  1  0
  3  4  1  0
  4  5  1  0
  5  6  1  0
  6  7  1  0
  6  8  1  0
  6  9  1  0
  9 10  1  0
  9 11  1  0
  9 12  1  0
 12 13  1  0
 13 14  1  0
 13 15  1  0
 13 16  1  0
 16 17  1  0
 16 18  1  0
 16 19  1  0
 19 20  1  0
 19 21  1  0
 19 22  1  0
 22 23  1  0
 23 24  1  0
 23 25  1  0
 23 26  1  0
 26 27  1  0
 26 28  1  0
 26 29  1  0
 29 30  1  0
 29 31  1  0
 29 32  1  0
M  END
$$$$

     RDKit          2D

 50 48  0  0  0  0  0  0  0  0999 V2000
    0.0000    0.0000    0.0000 C   0  0  0  0  0  0  0  0  0  0  0  0
    1.2990    0.7500    0.0000 C   0  0  0  0  0  0  0  0  0  0  0  0
    2.5981   -0.0000    0.0000 C   0  0  0  0  0  0  0  0  0  0  0  0
    3.8971    0.7500    0.0000 C   0  0  0  0  0  0  0  0  0  0  0  0
    5.1962   -0.0000    0.0000 C   0  0  0  0  0  0  0  0  0  0  0  0
    6.4952    0.7500    0.0000 C   0  0  0  0  0  0  0  0  0  0  0  0
    7.7942   -0.0000    0.0000 C   0  0  0  0  0  0  0  0  0  0  0  0
    9.0933    0.7500    0.0000 C   0  0  0  0  0  0  0  0  0  0  0  0
   10.3923   -0.0000    0.0000 N   0  0  0  0  0  0  0  0  0  0  0  0
   11.6913   -0.7500    0.0000 C   0  0  0  0  0  0  0  0  0  0  0  0
    9.6423   -1.2990    0.0000 C   0  0  0  0  0  0  0  0  0  0  0  0
   10.3923   -2.5981    0.0000 C   0  0  0  0  0  0  0  0  0  0  0  0
    9.6423   -3.8971    0.0000 O   0  0  0  0  0  0  0  0  0  0  0  0
   10.3923   -5.1962    0.0000 C   0  0  0  0  0  0  0  0  0  0  0  0
    9.6423   -6.4952    0.0000 C   0  0  0  0  0  0  0  0  0  0  0  0
   10.3923   -7.7942    0.0000 O   0  0  0  0  0  0  0  0  0  0  0  0
   11.1423    1.2990    0.0000 C   0  0  0  0  0  0  0  0  0  0  0  0
   12.6423    1.2990    0.0000 C   0  0  0  0  0  0  0  0  0  0  0  0
   13.3923    2.5981    0.0000 C   0  0  0  0  0  0  0  0  0  0  0  0
   14.8923    2.5981    0.0000 O   0  0  0  0  0  0  0  0  0  0  0  0
   15.6423    3.8971    0.0000 C   0  0  0  0  0  0  0  0  0  0  0  0
   17.1423    3.8971    0.0000 C   0  0  0  0  0  0  0  0  0  0  0  0
   17.8923    5.1962    0.0000 C   0  0  0  0  0  0  0  0  0  0  0  0
   19.1913    4.4462    0.0000 F   0  0  0  0  0  0  0  0  0  0  0  0
   16.5933    5.9462    0.0000 F   0  0  0  0  0  0  0  0  0  0  0  0
   18.6423    6.4952    0.0000 C   0  0  0  0  0  0  0  0  0  0  0  0
   17.3433    7.2452    0.0000 F   0  0  0  0  0  0  0  0  0  0  0  0
   19.9413    5.7452    0.0000 F   0  0  0  0  0  0  0  0  0  0  0  0
   19.3923    7.7942    0.0000 C   0  0  0  0  0  0  0  0  0  0  0  0
   20.6913    7.0442    0.0000 F   0  0  0  0  0  0  0  0  0  0  0  0
   18.0933    8.5442    0.0000 F   0  0  0  0  0  0  0  0  0  0  0  0
   20.1423    9.0933    0.0000 C   0  0  0  0  0  0  0  0  0  0  0  0
   18.8433    9.8433    0.0000 F   0  0  0  0  0  0  0  0  0  0  0  0
   21.4413    8.3433    0.0000 F   0  0  0  0  0  0  0  0  0  0  0  0
   20.8923   10.3923    0.0000 C   0  0  0  0  0  0  0  0  0  0  0  0
   22.1913    9.6423    0.0000 F   0  0  0  0  0  0  0  0  0  0  0  0
   19.5933   11.1423    0.0000 F   0  0  0  0  0  0  0  0  0  0  0  0
   21.6423   11.6913    0.0000 C   0  0  0  0  0  0  0  0  0  0  0  0
   22.3923   12.9904    0.0000 F   0  0  0  0  0  0  0  0  0  0  0  0
   20.3433   12.4413    0.0000 F   0  0  0  0  0  0  0  0  0  0  0  0
   22.9413   10.9413    0.0000 F   0  0  0  0  0  0  0  0  0  0  0  0
   13.3923   -0.0000    0.0000 O   0  0  0  0  0  0  0  0  0  0  0  0
   14.8923   -0.0000    0.0000 C   0  0  0  0  0  0  0  0  0  0  0  0
   15.6423   -1.2990    0.0000 C   0  0  0  0  0  0  0  0  0  0  0  0
   17.1423   -1.2990    0.0000 O   0  0  0  0  0  0  0  0  0  0  0  0
    0.0000   14.5394    0.0000 C   0  0  0  0  0  0  0  0  0  0  0  0
    1.2990   15.2894    0.0000 S   0  0  0  0  0  0  0  0  0  0  0  0
    2.0490   13.9904    0.0000 O   0  0  0  0  0  0  0  0  0  0  0  0
    0.5490   16.5885    0.0000 O   0  0  0  0  0  0  0  0  0  0  0  0
    2.5981   16.0394    0.0000 O   0  0  0  0  0  0  0  0  0  0  0  0
  1  2  1  0
  2  3  1  0
  3  4  1  0
  4  5  1  0
  5  6  1  0
  6  7  1  0
  7  8  1  0
  8  9  1  0
  9 10  1  0
  9 11  1  0
 11 12  1  0
 12 13  1  0
 13 14  1  0
 14 15  1  0
 15 16  1  0
  9 17  1  0
 17 18  1  0
 18 19  1  0
 19 20  1  0
 20 21  1  0
 21 22  1  0
 22 23  1  0
 23 24  1  0
 23 25  1  0
 23 26  1  0
 26 27  1  0
 26 28  1  0
 26 29  1  0
 29 30  1  0
 29 31  1  0
 29 32  1  0
 32 33  1  0
 32 34  1  0
 32 35  1  0
 35 36  1  0
 35 37  1  0
 35 38  1  0
 38 39  1  0
 38 40  1  0
 38 41  1  0
 18 42  1  0
 42 43  1  0
 43 44  1  0
 44 45  1  0
 46 47  1  0
 47 48  2  0
 47 49  2  0
 47 50  1  0
M  CHG  2   9   1  50  -1
M  END
$$$$

     RDKit          2D

 31 30  0  0  0  0  0  0  0  0999 V2000
   -1.2990    0.7500    0.0000 O   0  0  0  0  0  0  0  0  0  0  0  0
    0.0000    0.0000    0.0000 C   0  0  0  0  0  0  0  0  0  0  0  0
    1.2990    0.7500    0.0000 C   0  0  0  0  0  0  0  0  0  0  0  0
    2.5981   -0.0000    0.0000 O   0  0  0  0  0  0  0  0  0  0  0  0
    3.8971    0.7500    0.0000 C   0  0  0  0  0  0  0  0  0  0  0  0
    5.1962   -0.0000    0.0000 C   0  0  0  0  0  0  0  0  0  0  0  0
    6.4952    0.7500    0.0000 C   0  0  0  0  0  0  0  0  0  0  0  0
    7.2452   -0.5490    0.0000 F   0  0  0  0  0  0  0  0  0  0  0  0
    5.7452    2.0490    0.0000 F   0  0  0  0  0  0  0  0  0  0  0  0
    7.7942    1.5000    0.0000 C   0  0  0  0  0  0  0  0  0  0  0  0
    7.0442    2.7990    0.0000 F   0  0  0  0  0  0  0  0  0  0  0  0
    8.5442    0.2010    0.0000 F   0  0  0  0  0  0  0  0  0  0  0  0
    9.0933    2.2500    0.0000 C   0  0  0  0  0  0  0  0  0  0  0  0
    9.8433    0.9510    0.0000 F   0  0  0  0  0  0  0  0  0  0  0  0
    8.3433    3.5490    0.0000 F   0  0  0  0  0  0  0  0  0  0  0  0
   10.3923    3.0000    0.0000 C   0  0  0  0  0  0  0  0  0  0  0  0
    9.6423    4.2990    0.0000 F   0  0  0  0  0  0  0  0  0  0  0  0
   11.1423    1.7010    0.0000 F   0  0  0  0  0  0  0  0  0  0  0  0
   11.6913    3.7500    0.0000 C   0  0  0  0  0  0  0  0  0  0  0  0
   12.4413    2.4510    0.0000 F   0  0  0  0  0  0  0  0  0  0  0  0
   10.9413    5.0490    0.0000 F   0  0  0  0  0  0  0  0  0  0  0  0
   12.9904    4.5000    0.0000 C   0  0  0  0  0  0  0  0  0  0  0  0
   12.2404    5.7990    0.0000 F   0  0  0  0  0  0  0  0  0  0  0  0
   13.7404    3.2010    0.0000 F   0  0  0  0  0  0  0  0  0  0  0  0
   14.2894    5.2500    0.0000 C   0  0  0  0  0  0  0  0  0  0  0  0
   15.0394    3.9510    0.0000 F   0  0  0  0  0  0  0  0  0  0  0  0
   13.5394    6.5490    0.0000 F   0  0  0  0  0  0  0  0  0  0  0  0
   15.5885    6.0000    0.0000 C   0  0  0  0  0  0  0  0  0  0  0  0
   16.8875    6.7500    0.0000 F   0  0  0  0  0  0  0  0  0  0  0  0
   14.8385    7.2990    0.0000 F   0  0  0  0  0  0  0  0  0  0  0  0
   16.3385    4.7010    0.0000 F   0  0  0  0  0  0  0  0  0  0  0  0
  1  2  1  0
  2  3  1  0
  3  4  1  0
  4  5  1  0
  5  6  1  0
  6  7  1  0
  7  8  1  0
  7  9  1  0
  7 10  1  0
 10 11  1  0
 10 12  1  0
 10 13  1  0
 13 14  1  0
 13 15  1  0
 13 16  1  0
 16 17  1  0
 16 18  1  0
 16 19  1  0
 19 20  1  0
 19 21  1  0
 19 22  1  0
 22 23  1  0
 22 24  1  0
 22 25  1  0
 25 26  1  0
 25 27  1  0
 25 28  1  0
 28 29  1  0
 28 30  1  0
 28 31  1  0
M  END
$$$$

     RDKit          2D

 24 24  0  0  0  0  0  0  0  0999 V2000
    4.9472    2.8925    0.0000 F   0  0  0  0  0  0  0  0  0  0  0  0
    3.7981    1.9284    0.0000 C   0  0  0  0  0  0  0  0  0  0  0  0
    4.7623    0.7793    0.0000 F   0  0  0  0  0  0  0  0  0  0  0  0
    2.8340    3.0774    0.0000 F   0  0  0  0  0  0  0  0  0  0  0  0
    2.6491    0.9642    0.0000 C   0  0  0  0  0  0  0  0  0  0  0  0
    3.6132   -0.1849    0.0000 F   0  0  0  0  0  0  0  0  0  0  0  0
    2.2149    1.6327    0.0000 F   0  0  0  0  0  0  0  0  0  0  0  0
    1.5000    0.0000    0.0000 C   0  0  0  0  0  0  0  0  0  0  0  0
    2.6491   -0.9642    0.0000 F   0  0  0  0  0  0  0  0  0  0  0  0
    0.7500   -1.2990    0.0000 C   0  0  0  0  0  0  0  0  0  0  0  0
    2.1595   -1.8121    0.0000 F   0  0  0  0  0  0  0  0  0  0  0  0
    0.4895   -2.7762    0.0000 F   0  0  0  0  0  0  0  0  0  0  0  0
   -0.7500   -1.2990    0.0000 C   0  0  0  0  0  0  0  0  0  0  0  0
   -0.4895   -2.7762    0.0000 F   0  0  0  0  0  0  0  0  0  0  0  0
   -2.1595   -1.8121    0.0000 F   0  0  0  0  0  0  0  0  0  0  0  0
   -1.5000    0.0000    0.0000 C   0  0  0  0  0  0  0  0  0  0  0  0
   -2.6491   -0.9642    0.0000 F   0  0  0  0  0  0  0  0  0  0  0  0
   -2.6491    0.9642    0.0000 F   0  0  0  0  0  0  0  0  0  0  0  0
   -0.7500    1.2990    0.0000 C   0  0  0  0  0  0  0  0  0  0  0  0
   -2.1595    1.8121    0.0000 F   0  0  0  0  0  0  0  0  0  0  0  0
   -0.4895    2.7762    0.0000 F   0  0  0  0  0  0  0  0  0  0  0  0
    0.7500    1.2990    0.0000 C   0  0  0  0  0  0  0  0  0  0  0  0
    0.4895    2.7762    0.0000 F   0  0  0  0  0  0  0  0  0  0  0  0
    1.4603    1.6610    0.0000 F   0  0  0  0  0  0  0  0  0  0  0  0
  1  2  1  0
  2  3  1  0
  2  4  1  0
  2  5  1  0
  5  6  1  0
  5  7  1  0
  5  8  1  0
  8  9  1  0
  8 10  1  0
 10 11  1  0
 10 12  1  0
 10 13  1  0
 13 14  1  0
 13 15  1  0
 13 16  1  0
 16 17  1  0
 16 18  1  0
 16 19  1  0
 19 20  1  0
 19 21  1  0
 19 22  1  0
 22 23  1  0
 22 24  1  0
 22  8  1  0
M  END
$$$$

     RDKit          2D

 10  9  0  0  0  0  0  0  0  0999 V2000
    3.8971    2.2500    0.0000 F   0  0  0  0  0  0  0  0  0  0  0  0
    2.5981    1.5000    0.0000 C   0  0  0  0  0  0  0  0  0  0  0  0
    1.8481    2.7990    0.0000 F   0  0  0  0  0  0  0  0  0  0  0  0
    3.3481    0.2010    0.0000 F   0  0  0  0  0  0  0  0  0  0  0  0
    1.2990    0.7500    0.0000 C   0  0  0  0  0  0  0  0  0  0  0  0
    2.0490   -0.5490    0.0000 F   0  0  0  0  0  0  0  0  0  0  0  0
    0.5490    2.0490    0.0000 F   0  0  0  0  0  0  0  0  0  0  0  0
    0.0000    0.0000    0.0000 C   0  0  0  0  0  0  0  0  0  0  0  0
   -1.2990    0.7500    0.0000 C   0  0  0  0  0  0  0  0  0  0  0  0
   -2.5981    0.0000    0.0000 S   0  0  0  0  0  0  0  0  0  0  0  0
  1  2  1  0
  2  3  1  0
  2  4  1  0
  2  5  1  0
  5  6  1  0
  5  7  1  0
  5  8  1  0
  8  9  1  0
  9 10  1  0
M  END
$$$$

     RDKit          2D

 11 10  0  0  0  0  0  0  0  0999 V2000
   -3.3481    1.2990    0.0000 O   0  0  0  0  0  0  0  0  0  0  0  0
   -2.5981    0.0000    0.0000 P   0  0  0  0  0  0  0  0  0  0  0  0
   -1.8481   -1.2990    0.0000 O   0  0  0  0  0  0  0  0  0  0  0  0
   -3.8971   -0.7500    0.0000 O   0  0  0  0  0  0  0  0  0  0  0  0
   -1.2990    0.7500    0.0000 O   0  0  0  0  0  0  0  0  0  0  0  0
    0.0000    0.0000    0.0000 C   0  0  0  0  0  0  0  0  0  0  0  0
    1.2990    0.7500    0.0000 C   0  0  0  0  0  0  0  0  0  0  0  0
    2.5981   -0.0000    0.0000 C   0  0  0  0  0  0  0  0  0  0  0  0
    3.8971   -0.7500    0.0000 F   0  0  0  0  0  0  0  0  0  0  0  0
    3.3481    1.2990    0.0000 F   0  0  0  0  0  0  0  0  0  0  0  0
    1.8481   -1.2990    0.0000 F   0  0  0  0  0  0  0  0  0  0  0  0
  1  2  2  0
  2  3  1  0
  2  4  1  0
  2  5  1  0
  5  6  1  0
  6  7  1  0
  7  8  1  0
  8  9  1  0
  8 10  1  0
  8 11  1  0
M  END
$$$$

     RDKit          2D

 18 16  0  0  0  0  0  0  0  0999 V2000
    0.0000    0.0000    0.0000 C   0  0  0  0  0  0  0  0  0  0  0  0
    1.2990    0.7500    0.0000 C   0  0  0  0  0  0  0  0  0  0  0  0
    2.5981   -0.0000    0.0000 S   0  0  0  0  0  0  0  0  0  0  0  0
    3.3481    1.2990    0.0000 O   0  0  0  0  0  0  0  0  0  0  0  0
    1.8481   -1.2990    0.0000 O   0  0  0  0  0  0  0  0  0  0  0  0
    3.8971   -0.7500    0.0000 N   0  0  0  0  0  0  0  0  0  0  0  0
    3.8971   -2.2500    0.0000 C   0  0  0  0  0  0  0  0  0  0  0  0
    5.1962   -3.0000    0.0000 C   0  0  0  0  0  0  0  0  0  0  0  0
    6.4952   -2.2500    0.0000 O   0  0  0  0  0  0  0  0  0  0  0  0
    5.1962   -4.5000    0.0000 O   0  0  0  0  0  0  0  0  0  0  0  0
    5.1962   -0.0000    0.0000 C   0  0  0  0  0  0  0  0  0  0  0  0
    4.4462    1.2990    0.0000 F   0  0  0  0  0  0  0  0  0  0  0  0
    5.9462   -1.2990    0.0000 F   0  0  0  0  0  0  0  0  0  0  0  0
    6.4952    0.7500    0.0000 C   0  0  0  0  0  0  0  0  0  0  0  0
    7.7942    1.5000    0.0000 F   0  0  0  0  0  0  0  0  0  0  0  0
    5.7452    2.0490    0.0000 F   0  0  0  0  0  0  0  0  0  0  0  0
    7.2452   -0.5490    0.0000 F   0  0  0  0  0  0  0  0  0  0  0  0
    0.0000    3.0490    0.0000 K   0  0  0  0  0 15  0  0  0  0  0  0
  1  2  1  0
  2  3  1  0
  3  4  2  0
  3  5  2  0
  3  6  1  0
  6  7  1  0
  7  8  1  0
  8  9  2  0
  8 10  1  0
  6 11  1  0
 11 12  1  0
 11 13  1  0
 11 14  1  0
 14 15  1  0
 14 16  1  0
 14 17  1  0
M  CHG  2  10  -1  18   1
M  END
$$$$

     RDKit          2D

 11 10  0  0  0  0  0  0  0  0999 V2000
    0.0000    0.0000    0.0000 C   0  0  0  0  0  0  0  0  0  0  0  0
    1.2990    0.7500    0.0000 C   0  0  0  0  0  0  0  0  0  0  0  0
    2.5981   -0.0000    0.0000 C   0  0  0  0  0  0  0  0  0  0  0  0
    2.5981   -1.5000    0.0000 O   0  0  0  0  0  0  0  0  0  0  0  0
    3.8971    0.7500    0.0000 O   0  0  0  0  0  0  0  0  0  0  0  0
    5.1962   -0.0000    0.0000 C   0  0  0  0  0  0  0  0  0  0  0  0
    6.4952    0.7500    0.0000 C   0  0  0  0  0  0  0  0  0  0  0  0
    7.7942   -0.0000    0.0000 C   0  0  0  0  0  0  0  0  0  0  0  0
    9.0933   -0.7500    0.0000 F   0  0  0  0  0  0  0  0  0  0  0  0
    8.5442    1.2990    0.0000 F   0  0  0  0  0  0  0  0  0  0  0  0
    7.0442   -1.2990    0.0000 F   0  0  0  0  0  0  0  0  0  0  0  0
  1  2  2  0
  2  3  1  0
  3  4  2  0
  3  5  1  0
  5  6  1  0
  6  7  1  0
  7  8  1  0
  8  9  1  0
  8 10  1  0
  8 11  1  0
M  END
$$$$

     RDKit          2D

 35 34  0  0  0  0  0  0  0  0999 V2000
    0.0000    0.0000    0.0000 C   0  0  0  0  0  0  0  0  0  0  0  0
    1.2990    0.7500    0.0000 C   0  0  0  0  0  0  0  0  0  0  0  0
    2.5981   -0.0000    0.0000 N   0  0  0  0  0  0  0  0  0  0  0  0
    3.8971    0.7500    0.0000 C   0  0  0  0  0  0  0  0  0  0  0  0
    5.1962   -0.0000    0.0000 C   0  0  0  0  0  0  0  0  0  0  0  0
    6.4952    0.7500    0.0000 O   0  0  0  0  0  0  0  0  0  0  0  0
    7.7942   -0.0000    0.0000 C   0  0  0  0  0  0  0  0  0  0  0  0
    9.0933    0.7500    0.0000 C   0  0  0  0  0  0  0  0  0  0  0  0
   10.3923   -0.0000    0.0000 C   0  0  0  0  0  0  0  0  0  0  0  0
   11.6913    0.7500    0.0000 O   0  0  0  0  0  0  0  0  0  0  0  0
    2.5981   -1.5000    0.0000 S   0  0  0  0  0  0  0  0  0  0  0  0
    1.8069   -1.4028    0.0000 O   0  0  0  0  0  0  0  0  0  0  0  0
    4.0981   -1.5000    0.0000 O   0  0  0  0  0  0  0  0  0  0  0  0
    2.5981   -3.0000    0.0000 C   0  0  0  0  0  0  0  0  0  0  0  0
    4.0981   -3.0000    0.0000 F   0  0  0  0  0  0  0  0  0  0  0  0
    2.5981   -4.5000    0.0000 F   0  0  0  0  0  0  0  0  0  0  0  0
    1.0981   -3.0000    0.0000 C   0  0  0  0  0  0  0  0  0  0  0  0
    0.9901   -2.1209    0.0000 F   0  0  0  0  0  0  0  0  0  0  0  0
    1.0981   -4.5000    0.0000 F   0  0  0  0  0  0  0  0  0  0  0  0
   -0.4019   -3.0000    0.0000 C   0  0  0  0  0  0  0  0  0  0  0  0
   -0.4019   -1.5000    0.0000 F   0  0  0  0  0  0  0  0  0  0  0  0
   -0.4019   -4.5000    0.0000 F   0  0  0  0  0  0  0  0  0  0  0  0
   -1.9019   -3.0000    0.0000 C   0  0  0  0  0  0  0  0  0  0  0  0
   -1.9019   -4.5000    0.0000 F   0  0  0  0  0  0  0  0  0  0  0  0
   -1.9019   -1.5000    0.0000 F   0  0  0  0  0  0  0  0  0  0  0  0
   -3.4019   -3.0000    0.0000 C   0  0  0  0  0  0  0  0  0  0  0  0
   -3.4019   -4.5000    0.0000 F   0  0  0  0  0  0  0  0  0  0  0  0
   -3.4019   -1.5000    0.0000 F   0  0  0  0  0  0  0  0  0  0  0  0
   -4.9019   -3.0000    0.0000 C   0  0  0  0  0  0  0  0  0  0  0  0
   -4.9019   -1.5000    0.0000 F   0  0  0  0  0  0  0  0  0  0  0  0
   -4.9019   -4.5000    0.0000 F   0  0  0  0  0  0  0  0  0  0  0  0
   -6.4019   -3.0000    0.0000 C   0  0  0  0  0  0  0  0  0  0  0  0
   -7.9019   -3.0000    0.0000 F   0  0  0  0  0  0  0  0  0  0  0  0
   -6.4019   -4.5000    0.0000 F   0  0  0  0  0  0  0  0  0  0  0  0
   -6.4019   -1.5000    0.0000 F   0  0  0  0  0  0  0  0  0  0  0  0
  1  2  1  0
  2  3  1  0
  3  4  1  0
  4  5  1  0
  5  6  1  0
  6  7  1  0
  7  8  1  0
  8  9  1  0
  9 10  1  0
  3 11  1  0
 11 12  2  0
 11 13  2  0
 11 14  1  0
 14 15  1  0
 14 16  1  0
 14 17  1  0
 17 18  1  0
 17 19  1  0
 17 20  1  0
 20 21  1  0
 20 22  1  0
 20 23  1  0
 23 24  1  0
 23 25  1  0
 23 26  1  0
 26 27  1  0
 26 28  1  0
 26 29  1  0
 29 30  1  0
 29 31  1  0
 29 32  1  0
 32 33  1  0
 32 34  1  0
 32 35  1  0
M  END
$$$$

     RDKit          2D

 18 17  0  0  0  0  0  0  0  0999 V2000
    0.0000    0.0000    0.0000 R   0  0  0  0  0  0  0  0  0  0  0  0
    1.2990    0.7500    0.0000 C   0  0  0  0  0  0  0  0  0  0  0  0
    2.0490   -0.5490    0.0000 F   0  0  0  0  0  0  0  0  0  0  0  0
    0.5490    2.0490    0.0000 F   0  0  0  0  0  0  0  0  0  0  0  0
    2.5981    1.5000    0.0000 C   0  0  0  0  0  0  0  0  0  0  0  0
    3.8971    2.2500    0.0000 R   0  0  0  0  0  0  0  0  0  0  0  0
    1.8481    2.7990    0.0000 F   0  0  0  0  0  0  0  0  0  0  0  0
    3.3481    0.2010    0.0000 O   0  0  0  0  0  0  0  0  0  0  0  0
    4.8481    0.2010    0.0000 C   0  0  0  0  0  0  0  0  0  0  0  0
    4.8481    1.7010    0.0000 F   0  0  0  0  0  0  0  0  0  0  0  0
    4.8481   -1.2990    0.0000 F   0  0  0  0  0  0  0  0  0  0  0  0
    6.3481    0.2010    0.0000 C   0  0  0  0  0  0  0  0  0  0  0  0
    6.3481    1.7010    0.0000 F   0  0  0  0  0  0  0  0  0  0  0  0
    6.3481   -1.2990    0.0000 F   0  0  0  0  0  0  0  0  0  0  0  0
    7.8481    0.2010    0.0000 C   0  0  0  0  0  0  0  0  0  0  0  0
    9.3481    0.2010    0.0000 F   0  0  0  0  0  0  0  0  0  0  0  0
    7.8481   -1.2990    0.0000 F   0  0  0  0  0  0  0  0  0  0  0  0
    7.8481    1.7010    0.0000 F   0  0  0  0  0  0  0  0  0  0  0  0
  1  2  1  0
  2  3  1  0
  2  4  1  0
  2  5  1  0
  5  6  1  0
  5  7  1  0
  5  8  1  0
  8  9  1  0
  9 10  1  0
  9 11  1  0
  9 12  1  0
 12 13  1  0
 12 14  1  0
 12 15  1  0
 15 16  1  0
 15 17  1  0
 15 18  1  0
M  END
$$$$

     RDKit          2D

 35 34  0  0  0  0  0  0  0  0999 V2000
   -3.3481    1.2990    0.0000 O   0  0  0  0  0  0  0  0  0  0  0  0
   -2.5981   -0.0000    0.0000 S   0  0  0  0  0  0  0  0  0  0  0  0
   -2.1183   -0.6366    0.0000 O   0  0  0  0  0  0  0  0  0  0  0  0
   -1.2990    0.7500    0.0000 N   0  0  0  0  0  0  0  0  0  0  0  0
   -1.2990    2.2500    0.0000 C   0  0  0  0  0  0  0  0  0  0  0  0
   -0.0000    3.0000    0.0000 C   0  0  0  0  0  0  0  0  0  0  0  0
   -0.0000    4.5000    0.0000 O   0  0  0  0  0  0  0  0  0  0  0  0
    1.2990    5.2500    0.0000 C   0  0  0  0  0  0  0  0  0  0  0  0
    1.2990    6.7500    0.0000 C   0  0  0  0  0  0  0  0  0  0  0  0
    2.5981    7.5000    0.0000 O   0  0  0  0  0  0  0  0  0  0  0  0
   -3.8971   -0.7500    0.0000 C   0  0  0  0  0  0  0  0  0  0  0  0
   -4.6471    0.5490    0.0000 F   0  0  0  0  0  0  0  0  0  0  0  0
   -5.1962   -1.5000    0.0000 F   0  0  0  0  0  0  0  0  0  0  0  0
   -3.1471   -2.0490    0.0000 C   0  0  0  0  0  0  0  0  0  0  0  0
   -2.3318   -1.7030    0.0000 F   0  0  0  0  0  0  0  0  0  0  0  0
   -4.4462   -2.7990    0.0000 F   0  0  0  0  0  0  0  0  0  0  0  0
   -2.3971   -3.3481    0.0000 C   0  0  0  0  0  0  0  0  0  0  0  0
   -1.0981   -2.5981    0.0000 F   0  0  0  0  0  0  0  0  0  0  0  0
   -3.6962   -4.0981    0.0000 F   0  0  0  0  0  0  0  0  0  0  0  0
   -1.6471   -4.6471    0.0000 C   0  0  0  0  0  0  0  0  0  0  0  0
   -2.9462   -5.3971    0.0000 F   0  0  0  0  0  0  0  0  0  0  0  0
   -0.3481   -3.8971    0.0000 F   0  0  0  0  0  0  0  0  0  0  0  0
   -0.8971   -5.9462    0.0000 C   0  0  0  0  0  0  0  0  0  0  0  0
   -2.1962   -6.6962    0.0000 F   0  0  0  0  0  0  0  0  0  0  0  0
    0.4019   -5.1962    0.0000 F   0  0  0  0  0  0  0  0  0  0  0  0
   -0.1471   -7.2452    0.0000 C   0  0  0  0  0  0  0  0  0  0  0  0
    1.1519   -6.4952    0.0000 F   0  0  0  0  0  0  0  0  0  0  0  0
   -1.4462   -7.9952    0.0000 F   0  0  0  0  0  0  0  0  0  0  0  0
    0.6029   -8.5442    0.0000 C   0  0  0  0  0  0  0  0  0  0  0  0
   -0.6962   -9.2942    0.0000 F   0  0  0  0  0  0  0  0  0  0  0  0
    1.9019   -7.7942    0.0000 F   0  0  0  0  0  0  0  0  0  0  0  0
    1.3529   -9.8433    0.0000 C   0  0  0  0  0  0  0  0  0  0  0  0
    2.1029  -11.1423    0.0000 F   0  0  0  0  0  0  0  0  0  0  0  0
    2.6519   -9.0933    0.0000 F   0  0  0  0  0  0  0  0  0  0  0  0
    0.0538  -10.5933    0.0000 F   0  0  0  0  0  0  0  0  0  0  0  0
  1  2  2  0
  2  3  2  0
  2  4  1  0
  4  5  1  0
  5  6  1  0
  6  7  1  0
  7  8  1  0
  8  9  1  0
  9 10  1  0
  2 11  1  0
 11 12  1  0
 11 13  1  0
 11 14  1  0
 14 15  1  0
 14 16  1  0
 14 17  1  0
 17 18  1  0
 17 19  1  0
 17 20  1  0
 20 21  1  0
 20 22  1  0
 20 23  1  0
 23 24  1  0
 23 25  1  0
 23 26  1  0
 26 27  1  0
 26 28  1  0
 26 29  1  0
 29 30  1  0
 29 31  1  0
 29 32  1  0
 32 33  1  0
 32 34  1  0
 32 35  1  0
M  END
$$$$

     RDKit          2D

 12 11  0  0  0  0  0  0  0  0999 V2000
    1.2990    2.2500    0.0000 O   0  0  0  0  0  0  0  0  0  0  0  0
    1.2990    0.7500    0.0000 C   0  0  0  0  0  0  0  0  0  0  0  0
    2.5981   -0.0000    0.0000 O   0  0  0  0  0  0  0  0  0  0  0  0
    0.0000    0.0000    0.0000 C   0  0  0  0  0  0  0  0  0  0  0  0
   -1.2990    0.7500    0.0000 C   0  0  0  0  0  0  0  0  0  0  0  0
   -2.5981    0.0000    0.0000 S   0  0  0  0  0  0  0  0  0  0  0  0
   -3.8971    0.7500    0.0000 C   0  0  0  0  0  0  0  0  0  0  0  0
   -5.1962    0.0000    0.0000 C   0  0  0  0  0  0  0  0  0  0  0  0
   -6.4952    0.7500    0.0000 C   0  0  0  0  0  0  0  0  0  0  0  0
   -7.7942    1.5000    0.0000 F   0  0  0  0  0  0  0  0  0  0  0  0
   -7.2452   -0.5490    0.0000 F   0  0  0  0  0  0  0  0  0  0  0  0
   -5.7452    2.0490    0.0000 F   0  0  0  0  0  0  0  0  0  0  0  0
  1  2  2  0
  2  3  1  0
  2  4  1  0
  4  5  1  0
  5  6  1  0
  6  7  1  0
  7  8  1  0
  8  9  1  0
  9 10  1  0
  9 11  1  0
  9 12  1  0
M  END
$$$$

     RDKit          2D

 37 36  0  0  0  0  0  0  0  0999 V2000
    0.0000    0.0000    0.0000 C   0  0  0  0  0  0  0  0  0  0  0  0
    1.2990    0.7500    0.0000 C   0  0  0  0  0  0  0  0  0  0  0  0
    2.5981   -0.0000    0.0000 N   0  0  0  0  0  0  0  0  0  0  0  0
    3.8971    0.7500    0.0000 C   0  0  0  0  0  0  0  0  0  0  0  0
    5.1962   -0.0000    0.0000 C   0  0  0  0  0  0  0  0  0  0  0  0
    6.4952    0.7500    0.0000 O   0  0  0  0  0  0  0  0  0  0  0  0
    7.7942   -0.0000    0.0000 C   0  0  0  0  0  0  0  0  0  0  0  0
    9.0933    0.7500    0.0000 C   0  0  0  0  0  0  0  0  0  0  0  0
   10.3923   -0.0000    0.0000 O   0  0  0  0  0  0  0  0  0  0  0  0
    2.5981   -1.5000    0.0000 S   0  0  0  0  0  0  0  0  0  0  0  0
    1.8069   -1.4028    0.0000 O   0  0  0  0  0  0  0  0  0  0  0  0
    4.0981   -1.5000    0.0000 O   0  0  0  0  0  0  0  0  0  0  0  0
    2.5981   -3.0000    0.0000 C   0  0  0  0  0  0  0  0  0  0  0  0
    4.0981   -3.0000    0.0000 F   0  0  0  0  0  0  0  0  0  0  0  0
    2.5981   -4.5000    0.0000 F   0  0  0  0  0  0  0  0  0  0  0  0
    1.0981   -3.0000    0.0000 C   0  0  0  0  0  0  0  0  0  0  0  0
    0.9901   -2.1209    0.0000 F   0  0  0  0  0  0  0  0  0  0  0  0
    1.0981   -4.5000    0.0000 F   0  0  0  0  0  0  0  0  0  0  0  0
   -0.4019   -3.0000    0.0000 C   0  0  0  0  0  0  0  0  0  0  0  0
   -0.4019   -1.5000    0.0000 F   0  0  0  0  0  0  0  0  0  0  0  0
   -0.4019   -4.5000    0.0000 F   0  0  0  0  0  0  0  0  0  0  0  0
   -1.9019   -3.0000    0.0000 C   0  0  0  0  0  0  0  0  0  0  0  0
   -1.9019   -4.5000    0.0000 F   0  0  0  0  0  0  0  0  0  0  0  0
   -1.9019   -1.5000    0.0000 F   0  0  0  0  0  0  0  0  0  0  0  0
   -3.4019   -3.0000    0.0000 C   0  0  0  0  0  0  0  0  0  0  0  0
   -3.4019   -4.5000    0.0000 F   0  0  0  0  0  0  0  0  0  0  0  0
   -3.4019   -1.5000    0.0000 F   0  0  0  0  0  0  0  0  0  0  0  0
   -4.9019   -3.0000    0.0000 C   0  0  0  0  0  0  0  0  0  0  0  0
   -4.9019   -1.5000    0.0000 F   0  0  0  0  0  0  0  0  0  0  0  0
   -4.9019   -4.5000    0.0000 F   0  0  0  0  0  0  0  0  0  0  0  0
   -6.4019   -3.0000    0.0000 C   0  0  0  0  0  0  0  0  0  0  0  0
   -6.4019   -4.5000    0.0000 F   0  0  0  0  0  0  0  0  0  0  0  0
   -6.4019   -1.5000    0.0000 F   0  0  0  0  0  0  0  0  0  0  0  0
   -7.9019   -3.0000    0.0000 C   0  0  0  0  0  0  0  0  0  0  0  0
   -9.4019   -3.0000    0.0000 F   0  0  0  0  0  0  0  0  0  0  0  0
   -7.9019   -1.5000    0.0000 F   0  0  0  0  0  0  0  0  0  0  0  0
   -7.9019   -4.5000    0.0000 F   0  0  0  0  0  0  0  0  0  0  0  0
  1  2  1  0
  2  3  1  0
  3  4  1  0
  4  5  1  0
  5  6  1  0
  6  7  1  0
  7  8  1  0
  8  9  1  0
  3 10  1  0
 10 11  2  0
 10 12  2  0
 10 13  1  0
 13 14  1  0
 13 15  1  0
 13 16  1  0
 16 17  1  0
 16 18  1  0
 16 19  1  0
 19 20  1  0
 19 21  1  0
 19 22  1  0
 22 23  1  0
 22 24  1  0
 22 25  1  0
 25 26  1  0
 25 27  1  0
 25 28  1  0
 28 29  1  0
 28 30  1  0
 28 31  1  0
 31 32  1  0
 31 33  1  0
 31 34  1  0
 34 35  1  0
 34 36  1  0
 34 37  1  0
M  END
$$$$

     RDKit          2D

 44 43  0  0  0  0  0  0  0  0999 V2000
    0.0000    0.0000    0.0000 C   0  0  0  0  0  0  0  0  0  0  0  0
    1.2990    0.7500    0.0000 C   0  0  0  0  0  0  0  0  0  0  0  0
    2.5981   -0.0000    0.0000 C   0  0  0  0  0  0  0  0  0  0  0  0
    3.8971    0.7500    0.0000 O   0  0  0  0  0  0  0  0  0  0  0  0
    5.1962   -0.0000    0.0000 C   0  0  0  0  0  0  0  0  0  0  0  0
    5.1962   -1.5000    0.0000 O   0  0  0  0  0  0  0  0  0  0  0  0
    6.4952    0.7500    0.0000 C   0  0  0  0  0  0  0  0  0  0  0  0
    7.2452   -0.5490    0.0000 F   0  0  0  0  0  0  0  0  0  0  0  0
    5.7452    2.0490    0.0000 F   0  0  0  0  0  0  0  0  0  0  0  0
    7.7942    1.5000    0.0000 C   0  0  0  0  0  0  0  0  0  0  0  0
    7.0442    2.7990    0.0000 F   0  0  0  0  0  0  0  0  0  0  0  0
    8.5442    0.2010    0.0000 F   0  0  0  0  0  0  0  0  0  0  0  0
    9.0933    2.2500    0.0000 C   0  0  0  0  0  0  0  0  0  0  0  0
    9.8433    0.9510    0.0000 F   0  0  0  0  0  0  0  0  0  0  0  0
    8.3433    3.5490    0.0000 F   0  0  0  0  0  0  0  0  0  0  0  0
   10.3923    3.0000    0.0000 C   0  0  0  0  0  0  0  0  0  0  0  0
    9.6423    4.2990    0.0000 F   0  0  0  0  0  0  0  0  0  0  0  0
   11.1423    1.7010    0.0000 F   0  0  0  0  0  0  0  0  0  0  0  0
   11.6913    3.7500    0.0000 C   0  0  0  0  0  0  0  0  0  0  0  0
   12.4413    2.4510    0.0000 F   0  0  0  0  0  0  0  0  0  0  0  0
   10.9413    5.0490    0.0000 F   0  0  0  0  0  0  0  0  0  0  0  0
   12.9904    4.5000    0.0000 C   0  0  0  0  0  0  0  0  0  0  0  0
   12.2404    5.7990    0.0000 F   0  0  0  0  0  0  0  0  0  0  0  0
   13.7404    3.2010    0.0000 F   0  0  0  0  0  0  0  0  0  0  0  0
   14.2894    5.2500    0.0000 C   0  0  0  0  0  0  0  0  0  0  0  0
   15.5885    6.0000    0.0000 F   0  0  0  0  0  0  0  0  0  0  0  0
   15.0394    3.9510    0.0000 F   0  0  0  0  0  0  0  0  0  0  0  0
   13.5394    6.5490    0.0000 F   0  0  0  0  0  0  0  0  0  0  0  0
    1.2990    2.2500    0.0000 O   0  0  0  0  0  0  0  0  0  0  0  0
    2.5981    3.0000    0.0000 C   0  0  0  0  0  0  0  0  0  0  0  0
    2.5981    4.5000    0.0000 C   0  0  0  0  0  0  0  0  0  0  0  0
    3.8971    5.2500    0.0000 C   0  0  0  0  0  0  0  0  0  0  0  0
    1.2990    5.2500    0.0000 O   0  0  0  0  0  0  0  0  0  0  0  0
    1.2990    6.7500    0.0000 C   0  0  0  0  0  0  0  0  0  0  0  0
    0.0000    7.5000    0.0000 C   0  0  0  0  0  0  0  0  0  0  0  0
    0.0000    9.0000    0.0000 C   0  0  0  0  0  0  0  0  0  0  0  0
   -1.2990    6.7500    0.0000 O   0  0  0  0  0  0  0  0  0  0  0  0
   -2.5981    7.5000    0.0000 C   0  0  0  0  0  0  0  0  0  0  0  0
   -3.8971    6.7500    0.0000 C   0  0  0  0  0  0  0  0  0  0  0  0
   -5.1962    7.5000    0.0000 C   0  0  0  0  0  0  0  0  0  0  0  0
   -3.8971    5.2500    0.0000 O   0  0  0  0  0  0  0  0  0  0  0  0
   -5.1962    4.5000    0.0000 C   0  0  0  0  0  0  0  0  0  0  0  0
   -5.1962    3.0000    0.0000 C   0  0  0  0  0  0  0  0  0  0  0  0
   -6.4952    2.2500    0.0000 O   0  0  0  0  0  0  0  0  0  0  0  0
  1  2  1  0
  2  3  1  0
  3  4  1  0
  4  5  1  0
  5  6  2  0
  5  7  1  0
  7  8  1  0
  7  9  1  0
  7 10  1  0
 10 11  1  0
 10 12  1  0
 10 13  1  0
 13 14  1  0
 13 15  1  0
 13 16  1  0
 16 17  1  0
 16 18  1  0
 16 19  1  0
 19 20  1  0
 19 21  1  0
 19 22  1  0
 22 23  1  0
 22 24  1  0
 22 25  1  0
 25 26  1  0
 25 27  1  0
 25 28  1  0
  2 29  1  0
 29 30  1  0
 30 31  1  0
 31 32  1  0
 31 33  1  0
 33 34  1  0
 34 35  1  0
 35 36  1  0
 35 37  1  0
 37 38  1  0
 38 39  1  0
 39 40  1  0
 39 41  1  0
 41 42  1  0
 42 43  1  0
 43 44  1  0
M  END
$$$$

     RDKit          2D

 36 35  0  0  0  0  0  0  0  0999 V2000
    0.0000    0.0000    0.0000 C   0  0  0  0  0  0  0  0  0  0  0  0
    1.2990    0.7500    0.0000 N   0  0  0  0  0  0  0  0  0  0  0  0
    2.5981   -0.0000    0.0000 C   0  0  0  0  0  0  0  0  0  0  0  0
    3.8971    0.7500    0.0000 C   0  0  0  0  0  0  0  0  0  0  0  0
    5.1962    0.0000    0.0000 O   0  0  0  0  0  0  0  0  0  0  0  0
    6.4952    0.7500    0.0000 C   0  0  0  0  0  0  0  0  0  0  0  0
    7.7942   -0.0000    0.0000 C   0  0  0  0  0  0  0  0  0  0  0  0
    9.0933    0.7500    0.0000 O   0  0  0  0  0  0  0  0  0  0  0  0
    1.2990    2.2500    0.0000 S   0  0  0  0  0  0  0  0  0  0  0  0
    0.5078    2.1528    0.0000 O   0  0  0  0  0  0  0  0  0  0  0  0
    2.7990    2.2500    0.0000 O   0  0  0  0  0  0  0  0  0  0  0  0
    1.2990    3.7500    0.0000 C   0  0  0  0  0  0  0  0  0  0  0  0
    2.7990    3.7500    0.0000 F   0  0  0  0  0  0  0  0  0  0  0  0
    1.2990    5.2500    0.0000 F   0  0  0  0  0  0  0  0  0  0  0  0
   -0.2010    3.7500    0.0000 C   0  0  0  0  0  0  0  0  0  0  0  0
   -0.3089    2.8709    0.0000 F   0  0  0  0  0  0  0  0  0  0  0  0
   -0.2010    5.2500    0.0000 F   0  0  0  0  0  0  0  0  0  0  0  0
   -1.7010    3.7500    0.0000 C   0  0  0  0  0  0  0  0  0  0  0  0
   -1.7010    2.2500    0.0000 F   0  0  0  0  0  0  0  0  0  0  0  0
   -1.7010    5.2500    0.0000 F   0  0  0  0  0  0  0  0  0  0  0  0
   -3.2010    3.7500    0.0000 C   0  0  0  0  0  0  0  0  0  0  0  0
   -3.2010    5.2500    0.0000 F   0  0  0  0  0  0  0  0  0  0  0  0
   -3.2010    2.2500    0.0000 F   0  0  0  0  0  0  0  0  0  0  0  0
   -4.7010    3.7500    0.0000 C   0  0  0  0  0  0  0  0  0  0  0  0
   -4.7010    5.2500    0.0000 F   0  0  0  0  0  0  0  0  0  0  0  0
   -4.7010    2.2500    0.0000 F   0  0  0  0  0  0  0  0  0  0  0  0
   -6.2010    3.7500    0.0000 C   0  0  0  0  0  0  0  0  0  0  0  0
   -6.2010    2.2500    0.0000 F   0  0  0  0  0  0  0  0  0  0  0  0
   -6.2010    5.2500    0.0000 F   0  0  0  0  0  0  0  0  0  0  0  0
   -7.7010    3.7500    0.0000 C   0  0  0  0  0  0  0  0  0  0  0  0
   -7.7010    5.2500    0.0000 F   0  0  0  0  0  0  0  0  0  0  0  0
   -7.7010    2.2500    0.0000 F   0  0  0  0  0  0  0  0  0  0  0  0
   -9.2010    3.7500    0.0000 C   0  0  0  0  0  0  0  0  0  0  0  0
  -10.7010    3.7500    0.0000 F   0  0  0  0  0  0  0  0  0  0  0  0
   -9.2010    2.2500    0.0000 F   0  0  0  0  0  0  0  0  0  0  0  0
   -9.2010    5.2500    0.0000 F   0  0  0  0  0  0  0  0  0  0  0  0
  1  2  1  0
  2  3  1  0
  3  4  1  0
  4  5  1  0
  5  6  1  0
  6  7  1  0
  7  8  1  0
  2  9  1  0
  9 10  2  0
  9 11  2  0
  9 12  1  0
 12 13  1  0
 12 14  1  0
 12 15  1  0
 15 16  1  0
 15 17  1  0
 15 18  1  0
 18 19  1  0
 18 20  1  0
 18 21  1  0
 21 22  1  0
 21 23  1  0
 21 24  1  0
 24 25  1  0
 24 26  1  0
 24 27  1  0
 27 28  1  0
 27 29  1  0
 27 30  1  0
 30 31  1  0
 30 32  1  0
 30 33  1  0
 33 34  1  0
 33 35  1  0
 33 36  1  0
M  END
$$$$

     RDKit          2D

 37 36  0  0  0  0  0  0  0  0999 V2000
    0.0000    0.0000    0.0000 C   0  0  0  0  0  0  0  0  0  0  0  0
    1.2990    0.7500    0.0000 O   0  0  0  0  0  0  0  0  0  0  0  0
    2.5981   -0.0000    0.0000 C   0  0  0  0  0  0  0  0  0  0  0  0
    3.8971    0.7500    0.0000 C   0  0  0  0  0  0  0  0  0  0  0  0
    5.1962   -0.0000    0.0000 O   0  0  0  0  0  0  0  0  0  0  0  0
    6.4952    0.7500    0.0000 C   0  0  0  0  0  0  0  0  0  0  0  0
    7.7942   -0.0000    0.0000 C   0  0  0  0  0  0  0  0  0  0  0  0
    7.7942   -1.5000    0.0000 O   0  0  0  0  0  0  0  0  0  0  0  0
    9.0933    0.7500    0.0000 C   0  0  0  0  0  0  0  0  0  0  0  0
   10.3923   -0.0000    0.0000 C   0  0  0  0  0  0  0  0  0  0  0  0
   11.1423    1.2990    0.0000 F   0  0  0  0  0  0  0  0  0  0  0  0
    9.6423   -1.2990    0.0000 F   0  0  0  0  0  0  0  0  0  0  0  0
   11.6913   -0.7500    0.0000 C   0  0  0  0  0  0  0  0  0  0  0  0
   10.9413   -2.0490    0.0000 F   0  0  0  0  0  0  0  0  0  0  0  0
   12.4413    0.5490    0.0000 F   0  0  0  0  0  0  0  0  0  0  0  0
   12.9904   -1.5000    0.0000 C   0  0  0  0  0  0  0  0  0  0  0  0
   13.7404   -0.2010    0.0000 F   0  0  0  0  0  0  0  0  0  0  0  0
   12.2404   -2.7990    0.0000 F   0  0  0  0  0  0  0  0  0  0  0  0
   14.2894   -2.2500    0.0000 C   0  0  0  0  0  0  0  0  0  0  0  0
   13.5394   -3.5490    0.0000 F   0  0  0  0  0  0  0  0  0  0  0  0
   15.0394   -0.9510    0.0000 F   0  0  0  0  0  0  0  0  0  0  0  0
   15.5885   -3.0000    0.0000 C   0  0  0  0  0  0  0  0  0  0  0  0
   16.3385   -1.7010    0.0000 F   0  0  0  0  0  0  0  0  0  0  0  0
   14.8385   -4.2990    0.0000 F   0  0  0  0  0  0  0  0  0  0  0  0
   16.8875   -3.7500    0.0000 C   0  0  0  0  0  0  0  0  0  0  0  0
   16.1375   -5.0490    0.0000 F   0  0  0  0  0  0  0  0  0  0  0  0
   17.6375   -2.4510    0.0000 F   0  0  0  0  0  0  0  0  0  0  0  0
   18.1865   -4.5000    0.0000 C   0  0  0  0  0  0  0  0  0  0  0  0
   18.9365   -3.2010    0.0000 F   0  0  0  0  0  0  0  0  0  0  0  0
   17.4365   -5.7990    0.0000 F   0  0  0  0  0  0  0  0  0  0  0  0
   19.4856   -5.2500    0.0000 C   0  0  0  0  0  0  0  0  0  0  0  0
   18.7356   -6.5490    0.0000 F   0  0  0  0  0  0  0  0  0  0  0  0
   20.2356   -3.9510    0.0000 F   0  0  0  0  0  0  0  0  0  0  0  0
   20.7846   -6.0000    0.0000 C   0  0  0  0  0  0  0  0  0  0  0  0
   22.0836   -6.7500    0.0000 F   0  0  0  0  0  0  0  0  0  0  0  0
   21.5346   -4.7010    0.0000 F   0  0  0  0  0  0  0  0  0  0  0  0
   20.0346   -7.2990    0.0000 F   0  0  0  0  0  0  0  0  0  0  0  0
  1  2  1  0
  2  3  1  0
  3  4  1  0
  4  5  1  0
  5  6  1  0
  6  7  1  0
  7  8  1  0
  7  9  1  0
  9 10  1  0
 10 11  1  0
 10 12  1  0
 10 13  1  0
 13 14  1  0
 13 15  1  0
 13 16  1  0
 16 17  1  0
 16 18  1  0
 16 19  1  0
 19 20  1  0
 19 21  1  0
 19 22  1  0
 22 23  1  0
 22 24  1  0
 22 25  1  0
 25 26  1  0
 25 27  1  0
 25 28  1  0
 28 29  1  0
 28 30  1  0
 28 31  1  0
 31 32  1  0
 31 33  1  0
 31 34  1  0
 34 35  1  0
 34 36  1  0
 34 37  1  0
M  END
$$$$

     RDKit          2D

 32 31  0  0  0  0  0  0  0  0999 V2000
    1.2990    2.2500    0.0000 O   0  0  0  0  0  0  0  0  0  0  0  0
    1.2990    0.7500    0.0000 C   0  0  0  0  0  0  0  0  0  0  0  0
    0.0000    0.0000    0.0000 C   0  0  0  0  0  0  0  0  0  0  0  0
   -1.2990    0.7500    0.0000 C   0  0  0  0  0  0  0  0  0  0  0  0
   -2.0490   -0.5490    0.0000 F   0  0  0  0  0  0  0  0  0  0  0  0
   -0.5490    2.0490    0.0000 F   0  0  0  0  0  0  0  0  0  0  0  0
   -2.5981    1.5000    0.0000 C   0  0  0  0  0  0  0  0  0  0  0  0
   -1.8481    2.7990    0.0000 F   0  0  0  0  0  0  0  0  0  0  0  0
   -3.3481    0.2010    0.0000 F   0  0  0  0  0  0  0  0  0  0  0  0
   -3.8971    2.2500    0.0000 C   0  0  0  0  0  0  0  0  0  0  0  0
   -4.6471    0.9510    0.0000 F   0  0  0  0  0  0  0  0  0  0  0  0
   -3.1471    3.5490    0.0000 F   0  0  0  0  0  0  0  0  0  0  0  0
   -5.1962    3.0000    0.0000 C   0  0  0  0  0  0  0  0  0  0  0  0
   -4.4462    4.2990    0.0000 F   0  0  0  0  0  0  0  0  0  0  0  0
   -5.9462    1.7010    0.0000 F   0  0  0  0  0  0  0  0  0  0  0  0
   -6.4952    3.7500    0.0000 C   0  0  0  0  0  0  0  0  0  0  0  0
   -7.2452    2.4510    0.0000 F   0  0  0  0  0  0  0  0  0  0  0  0
   -5.7452    5.0490    0.0000 F   0  0  0  0  0  0  0  0  0  0  0  0
   -7.7942    4.5000    0.0000 C   0  0  0  0  0  0  0  0  0  0  0  0
   -7.0442    5.7990    0.0000 F   0  0  0  0  0  0  0  0  0  0  0  0
   -8.5442    3.2010    0.0000 F   0  0  0  0  0  0  0  0  0  0  0  0
   -9.0933    5.2500    0.0000 C   0  0  0  0  0  0  0  0  0  0  0  0
   -9.8433    3.9510    0.0000 F   0  0  0  0  0  0  0  0  0  0  0  0
   -8.3433    6.5490    0.0000 F   0  0  0  0  0  0  0  0  0  0  0  0
  -10.3923    6.0000    0.0000 C   0  0  0  0  0  0  0  0  0  0  0  0
  -11.6913    6.7500    0.0000 F   0  0  0  0  0  0  0  0  0  0  0  0
   -9.6423    7.2990    0.0000 F   0  0  0  0  0  0  0  0  0  0  0  0
  -11.1423    4.7010    0.0000 F   0  0  0  0  0  0  0  0  0  0  0  0
    2.5981   -0.0000    0.0000 O   0  0  0  0  0  0  0  0  0  0  0  0
    3.8971    0.7500    0.0000 C   0  0  0  0  0  0  0  0  0  0  0  0
    5.1962   -0.0000    0.0000 C   0  0  0  0  0  0  0  0  0  0  0  0
    6.4952    0.7500    0.0000 O   0  0  0  0  0  0  0  0  0  0  0  0
  1  2  2  0
  2  3  1  0
  3  4  1  0
  4  5  1  0
  4  6  1  0
  4  7  1  0
  7  8  1  0
  7  9  1  0
  7 10  1  0
 10 11  1  0
 10 12  1  0
 10 13  1  0
 13 14  1  0
 13 15  1  0
 13 16  1  0
 16 17  1  0
 16 18  1  0
 16 19  1  0
 19 20  1  0
 19 21  1  0
 19 22  1  0
 22 23  1  0
 22 24  1  0
 22 25  1  0
 25 26  1  0
 25 27  1  0
 25 28  1  0
  2 29  1  0
 29 30  1  0
 30 31  1  0
 31 32  1  0
M  END
$$$$

     RDKit          2D

 26 25  0  0  0  0  0  0  0  0999 V2000
    1.2990    2.2500    0.0000 O   0  0  0  0  0  0  0  0  0  0  0  0
    1.2990    0.7500    0.0000 C   0  0  0  0  0  0  0  0  0  0  0  0
    0.0000    0.0000    0.0000 C   0  0  0  0  0  0  0  0  0  0  0  0
   -1.2990    0.7500    0.0000 C   0  0  0  0  0  0  0  0  0  0  0  0
   -2.0490   -0.5490    0.0000 F   0  0  0  0  0  0  0  0  0  0  0  0
   -0.5490    2.0490    0.0000 F   0  0  0  0  0  0  0  0  0  0  0  0
   -2.5981    1.5000    0.0000 C   0  0  0  0  0  0  0  0  0  0  0  0
   -1.8481    2.7990    0.0000 F   0  0  0  0  0  0  0  0  0  0  0  0
   -3.3481    0.2010    0.0000 F   0  0  0  0  0  0  0  0  0  0  0  0
   -3.8971    2.2500    0.0000 C   0  0  0  0  0  0  0  0  0  0  0  0
   -4.6471    0.9510    0.0000 F   0  0  0  0  0  0  0  0  0  0  0  0
   -3.1471    3.5490    0.0000 F   0  0  0  0  0  0  0  0  0  0  0  0
   -5.1962    3.0000    0.0000 C   0  0  0  0  0  0  0  0  0  0  0  0
   -4.4462    4.2990    0.0000 F   0  0  0  0  0  0  0  0  0  0  0  0
   -5.9462    1.7010    0.0000 F   0  0  0  0  0  0  0  0  0  0  0  0
   -6.4952    3.7500    0.0000 C   0  0  0  0  0  0  0  0  0  0  0  0
   -7.2452    2.4510    0.0000 F   0  0  0  0  0  0  0  0  0  0  0  0
   -5.7452    5.0490    0.0000 F   0  0  0  0  0  0  0  0  0  0  0  0
   -7.7942    4.5000    0.0000 C   0  0  0  0  0  0  0  0  0  0  0  0
   -9.0933    5.2500    0.0000 F   0  0  0  0  0  0  0  0  0  0  0  0
   -7.0442    5.7990    0.0000 F   0  0  0  0  0  0  0  0  0  0  0  0
   -8.5442    3.2010    0.0000 F   0  0  0  0  0  0  0  0  0  0  0  0
    2.5981   -0.0000    0.0000 O   0  0  0  0  0  0  0  0  0  0  0  0
    3.8971    0.7500    0.0000 C   0  0  0  0  0  0  0  0  0  0  0  0
    5.1962   -0.0000    0.0000 C   0  0  0  0  0  0  0  0  0  0  0  0
    6.4952    0.7500    0.0000 O   0  0  0  0  0  0  0  0  0  0  0  0
  1  2  2  0
  2  3  1  0
  3  4  1  0
  4  5  1  0
  4  6  1  0
  4  7  1  0
  7  8  1  0
  7  9  1  0
  7 10  1  0
 10 11  1  0
 10 12  1  0
 10 13  1  0
 13 14  1  0
 13 15  1  0
 13 16  1  0
 16 17  1  0
 16 18  1  0
 16 19  1  0
 19 20  1  0
 19 21  1  0
 19 22  1  0
  2 23  1  0
 23 24  1  0
 24 25  1  0
 25 26  1  0
M  END
$$$$

     RDKit          2D

 38 37  0  0  0  0  0  0  0  0999 V2000
   -0.0000   -0.0000    0.0000 C   0  0  0  0  0  0  0  0  0  0  0  0
    1.2990    0.7500    0.0000 C   0  0  0  0  0  0  0  0  0  0  0  0
    2.5981   -0.0000    0.0000 C   0  0  0  0  0  0  0  0  0  0  0  0
    3.8971    0.7500    0.0000 N   0  0  0  0  0  0  0  0  0  0  0  0
    5.1962    0.0000    0.0000 C   0  0  0  0  0  0  0  0  0  0  0  0
    6.4952    0.7500    0.0000 C   0  0  0  0  0  0  0  0  0  0  0  0
    7.7942   -0.0000    0.0000 O   0  0  0  0  0  0  0  0  0  0  0  0
    9.0933    0.7500    0.0000 C   0  0  0  0  0  0  0  0  0  0  0  0
   10.3923   -0.0000    0.0000 C   0  0  0  0  0  0  0  0  0  0  0  0
   11.6913    0.7500    0.0000 O   0  0  0  0  0  0  0  0  0  0  0  0
    3.8971    2.2500    0.0000 S   0  0  0  0  0  0  0  0  0  0  0  0
    3.1059    2.1528    0.0000 O   0  0  0  0  0  0  0  0  0  0  0  0
    5.3971    2.2500    0.0000 O   0  0  0  0  0  0  0  0  0  0  0  0
    3.8971    3.7500    0.0000 C   0  0  0  0  0  0  0  0  0  0  0  0
    5.3971    3.7500    0.0000 F   0  0  0  0  0  0  0  0  0  0  0  0
    3.8971    5.2500    0.0000 F   0  0  0  0  0  0  0  0  0  0  0  0
    2.3971    3.7500    0.0000 C   0  0  0  0  0  0  0  0  0  0  0  0
    2.2891    2.8709    0.0000 F   0  0  0  0  0  0  0  0  0  0  0  0
    2.3971    5.2500    0.0000 F   0  0  0  0  0  0  0  0  0  0  0  0
    0.8971    3.7500    0.0000 C   0  0  0  0  0  0  0  0  0  0  0  0
    0.8971    2.2500    0.0000 F   0  0  0  0  0  0  0  0  0  0  0  0
    0.8971    5.2500    0.0000 F   0  0  0  0  0  0  0  0  0  0  0  0
   -0.6029    3.7500    0.0000 C   0  0  0  0  0  0  0  0  0  0  0  0
   -0.6029    2.2500    0.0000 F   0  0  0  0  0  0  0  0  0  0  0  0
   -0.6029    5.2500    0.0000 F   0  0  0  0  0  0  0  0  0  0  0  0
   -2.1029    3.7500    0.0000 C   0  0  0  0  0  0  0  0  0  0  0  0
   -2.1029    2.2500    0.0000 F   0  0  0  0  0  0  0  0  0  0  0  0
   -2.1029    5.2500    0.0000 F   0  0  0  0  0  0  0  0  0  0  0  0
   -3.6029    3.7500    0.0000 C   0  0  0  0  0  0  0  0  0  0  0  0
   -3.6029    5.2500    0.0000 F   0  0  0  0  0  0  0  0  0  0  0  0
   -3.6029    2.2500    0.0000 F   0  0  0  0  0  0  0  0  0  0  0  0
   -5.1029    3.7500    0.0000 C   0  0  0  0  0  0  0  0  0  0  0  0
   -5.1029    2.2500    0.0000 F   0  0  0  0  0  0  0  0  0  0  0  0
   -5.1029    5.2500    0.0000 F   0  0  0  0  0  0  0  0  0  0  0  0
   -6.6029    3.7500    0.0000 C   0  0  0  0  0  0  0  0  0  0  0  0
   -8.1029    3.7500    0.0000 F   0  0  0  0  0  0  0  0  0  0  0  0
   -6.6029    5.2500    0.0000 F   0  0  0  0  0  0  0  0  0  0  0  0
   -6.6029    2.2500    0.0000 F   0  0  0  0  0  0  0  0  0  0  0  0
  1  2  1  0
  2  3  1  0
  3  4  1  0
  4  5  1  0
  5  6  1  0
  6  7  1  0
  7  8  1  0
  8  9  1  0
  9 10  1  0
  4 11  1  0
 11 12  2  0
 11 13  2  0
 11 14  1  0
 14 15  1  0
 14 16  1  0
 14 17  1  0
 17 18  1  0
 17 19  1  0
 17 20  1  0
 20 21  1  0
 20 22  1  0
 20 23  1  0
 23 24  1  0
 23 25  1  0
 23 26  1  0
 26 27  1  0
 26 28  1  0
 26 29  1  0
 29 30  1  0
 29 31  1  0
 29 32  1  0
 32 33  1  0
 32 34  1  0
 32 35  1  0
 35 36  1  0
 35 37  1  0
 35 38  1  0
M  END
$$$$

     RDKit          2D

 21 19  0  0  0  0  0  0  0  0999 V2000
   -1.8481   -1.2990    0.0000 O   0  0  0  0  0  0  0  0  0  0  0  0
   -2.5981    0.0000    0.0000 S   0  0  0  0  0  0  0  0  0  0  0  0
   -3.3481    1.2990    0.0000 O   0  0  0  0  0  0  0  0  0  0  0  0
   -3.8971   -0.7500    0.0000 O   0  0  0  0  0  0  0  0  0  0  0  0
   -1.2990    0.7500    0.0000 O   0  0  0  0  0  0  0  0  0  0  0  0
    0.0000    0.0000    0.0000 C   0  0  0  0  0  0  0  0  0  0  0  0
    1.2990    0.7500    0.0000 C   0  0  0  0  0  0  0  0  0  0  0  0
    2.5981   -0.0000    0.0000 C   0  0  0  0  0  0  0  0  0  0  0  0
    3.3481    1.2990    0.0000 F   0  0  0  0  0  0  0  0  0  0  0  0
    1.8481   -1.2990    0.0000 F   0  0  0  0  0  0  0  0  0  0  0  0
    3.8971   -0.7500    0.0000 C   0  0  0  0  0  0  0  0  0  0  0  0
    3.1471   -2.0490    0.0000 F   0  0  0  0  0  0  0  0  0  0  0  0
    4.6471    0.5490    0.0000 F   0  0  0  0  0  0  0  0  0  0  0  0
    5.1962   -1.5000    0.0000 C   0  0  0  0  0  0  0  0  0  0  0  0
    5.9462   -0.2010    0.0000 F   0  0  0  0  0  0  0  0  0  0  0  0
    4.4462   -2.7990    0.0000 F   0  0  0  0  0  0  0  0  0  0  0  0
    6.4952   -2.2500    0.0000 C   0  0  0  0  0  0  0  0  0  0  0  0
    7.7942   -3.0000    0.0000 F   0  0  0  0  0  0  0  0  0  0  0  0
    5.7452   -3.5490    0.0000 F   0  0  0  0  0  0  0  0  0  0  0  0
    7.2452   -0.9510    0.0000 F   0  0  0  0  0  0  0  0  0  0  0  0
    0.0000    2.2990    0.0000 N   0  0  0  0  0  0  0  0  0  0  0  0
  1  2  2  0
  2  3  2  0
  2  4  1  0
  2  5  1  0
  5  6  1  0
  6  7  1  0
  7  8  1  0
  8  9  1  0
  8 10  1  0
  8 11  1  0
 11 12  1  0
 11 13  1  0
 11 14  1  0
 14 15  1  0
 14 16  1  0
 14 17  1  0
 17 18  1  0
 17 19  1  0
 17 20  1  0
M  CHG  1  21   1
M  END
$$$$

     RDKit          2D

 15 14  0  0  0  0  0  0  0  0999 V2000
    0.0000    0.0000    0.0000 C   0  0  0  0  0  0  0  0  0  0  0  0
    1.2990    0.7500    0.0000 C   0  0  0  0  0  0  0  0  0  0  0  0
    2.5981   -0.0000    0.0000 C   0  0  0  0  0  0  0  0  0  0  0  0
    2.5981   -1.5000    0.0000 O   0  0  0  0  0  0  0  0  0  0  0  0
    3.8971    0.7500    0.0000 O   0  0  0  0  0  0  0  0  0  0  0  0
    5.1962   -0.0000    0.0000 C   0  0  0  0  0  0  0  0  0  0  0  0
    6.4952    0.7500    0.0000 C   0  0  0  0  0  0  0  0  0  0  0  0
    7.7942   -0.0000    0.0000 C   0  0  0  0  0  0  0  0  0  0  0  0
    9.0933    0.7500    0.0000 C   0  0  0  0  0  0  0  0  0  0  0  0
    9.8433   -0.5490    0.0000 F   0  0  0  0  0  0  0  0  0  0  0  0
    8.3433    2.0490    0.0000 F   0  0  0  0  0  0  0  0  0  0  0  0
   10.3923    1.5000    0.0000 C   0  0  0  0  0  0  0  0  0  0  0  0
   11.6913    2.2500    0.0000 F   0  0  0  0  0  0  0  0  0  0  0  0
    9.6423    2.7990    0.0000 F   0  0  0  0  0  0  0  0  0  0  0  0
   11.1423    0.2010    0.0000 F   0  0  0  0  0  0  0  0  0  0  0  0
  1  2  2  0
  2  3  1  0
  3  4  2  0
  3  5  1  0
  5  6  1  0
  6  7  1  0
  7  8  1  0
  8  9  1  0
  9 10  1  0
  9 11  1  0
  9 12  1  0
 12 13  1  0
 12 14  1  0
 12 15  1  0
M  END
$$$$

     RDKit          2D

 24 22  0  0  0  0  0  0  0  0999 V2000
   -1.8481   -1.2990    0.0000 O   0  0  0  0  0  0  0  0  0  0  0  0
   -2.5981    0.0000    0.0000 P   0  0  0  0  0  0  0  0  0  0  0  0
   -3.3481    1.2990    0.0000 O   0  0  0  0  0  0  0  0  0  0  0  0
   -1.2990    0.7500    0.0000 O   0  0  0  0  0  0  0  0  0  0  0  0
    0.0000    0.0000    0.0000 C   0  0  0  0  0  0  0  0  0  0  0  0
    1.2990    0.7500    0.0000 C   0  0  0  0  0  0  0  0  0  0  0  0
    2.5981   -0.0000    0.0000 C   0  0  0  0  0  0  0  0  0  0  0  0
    3.8971   -0.7500    0.0000 F   0  0  0  0  0  0  0  0  0  0  0  0
    3.3481    1.2990    0.0000 F   0  0  0  0  0  0  0  0  0  0  0  0
    1.8481   -1.2990    0.0000 F   0  0  0  0  0  0  0  0  0  0  0  0
   -3.8971   -0.7500    0.0000 O   0  0  0  0  0  0  0  0  0  0  0  0
   -3.8971   -2.2500    0.0000 C   0  0  0  0  0  0  0  0  0  0  0  0
   -5.1962   -3.0000    0.0000 C   0  0  0  0  0  0  0  0  0  0  0  0
   -5.1962   -4.5000    0.0000 C   0  0  0  0  0  0  0  0  0  0  0  0
   -5.1962   -6.0000    0.0000 F   0  0  0  0  0  0  0  0  0  0  0  0
   -6.6962   -4.5000    0.0000 F   0  0  0  0  0  0  0  0  0  0  0  0
   -3.6962   -4.5000    0.0000 F   0  0  0  0  0  0  0  0  0  0  0  0
   -1.2990    3.0490    0.0000 O   0  0  0  0  0  0  0  0  0  0  0  0
    0.0000    2.2990    0.0000 C   0  0  0  0  0  0  0  0  0  0  0  0
    1.2990    3.0490    0.0000 C   0  0  0  0  0  0  0  0  0  0  0  0
    2.5981    2.2990    0.0000 N   0  0  0  0  0  0  0  0  0  0  0  0
    3.8971    3.0490    0.0000 C   0  0  0  0  0  0  0  0  0  0  0  0
    5.1962    2.2990    0.0000 C   0  0  0  0  0  0  0  0  0  0  0  0
    6.4952    3.0490    0.0000 O   0  0  0  0  0  0  0  0  0  0  0  0
  1  2  2  0
  2  3  1  0
  2  4  1  0
  4  5  1  0
  5  6  1  0
  6  7  1  0
  7  8  1  0
  7  9  1  0
  7 10  1  0
  2 11  1  0
 11 12  1  0
 12 13  1  0
 13 14  1  0
 14 15  1  0
 14 16  1  0
 14 17  1  0
 18 19  1  0
 19 20  1  0
 20 21  1  0
 21 22  1  0
 22 23  1  0
 23 24  1  0
M  END
$$$$

     RDKit          2D

 28 27  0  0  0  0  0  0  0  0999 V2000
   -1.2990    2.2500    0.0000 O   0  0  0  0  0  0  0  0  0  0  0  0
   -1.2990    0.7500    0.0000 C   0  0  0  0  0  0  0  0  0  0  0  0
    0.0000    0.0000    0.0000 C   0  0  0  0  0  0  0  0  0  0  0  0
    1.2990    0.7500    0.0000 C   0  0  0  0  0  0  0  0  0  0  0  0
    0.5490    2.0490    0.0000 O   0  0  0  0  0  0  0  0  0  0  0  0
    2.5981    1.5000    0.0000 C   0  0  0  0  0  0  0  0  0  0  0  0
    2.5981    3.0000    0.0000 C   0  0  0  0  0  0  0  0  0  0  0  0
    3.8971    3.7500    0.0000 O   0  0  0  0  0  0  0  0  0  0  0  0
    1.2990    3.7500    0.0000 O   0  0  0  0  0  0  0  0  0  0  0  0
    1.2990    5.2500    0.0000 C   0  0  0  0  0  0  0  0  0  0  0  0
    1.2990    6.7500    0.0000 F   0  0  0  0  0  0  0  0  0  0  0  0
   -0.2010    5.2500    0.0000 F   0  0  0  0  0  0  0  0  0  0  0  0
    2.7990    5.2500    0.0000 F   0  0  0  0  0  0  0  0  0  0  0  0
    2.0490   -0.5490    0.0000 C   0  0  0  0  0  0  0  0  0  0  0  0
    3.5490   -0.5490    0.0000 O   0  0  0  0  0  0  0  0  0  0  0  0
    1.2990   -1.8481    0.0000 O   0  0  0  0  0  0  0  0  0  0  0  0
    2.0490   -3.1471    0.0000 C   0  0  0  0  0  0  0  0  0  0  0  0
    2.7990   -4.4462    0.0000 F   0  0  0  0  0  0  0  0  0  0  0  0
    0.7500   -3.8971    0.0000 F   0  0  0  0  0  0  0  0  0  0  0  0
    3.3481   -2.3971    0.0000 F   0  0  0  0  0  0  0  0  0  0  0  0
   -2.5981    0.0000    0.0000 O   0  0  0  0  0  0  0  0  0  0  0  0
   -3.8971    0.7500    0.0000 C   0  0  0  0  0  0  0  0  0  0  0  0
   -5.1962    0.0000    0.0000 C   0  0  0  0  0  0  0  0  0  0  0  0
   -6.4952    0.7500    0.0000 O   0  0  0  0  0  0  0  0  0  0  0  0
   -7.7942    0.0000    0.0000 C   0  0  0  0  0  0  0  0  0  0  0  0
   -9.0933   -0.7500    0.0000 F   0  0  0  0  0  0  0  0  0  0  0  0
   -8.5442    1.2990    0.0000 F   0  0  0  0  0  0  0  0  0  0  0  0
   -7.0442   -1.2990    0.0000 F   0  0  0  0  0  0  0  0  0  0  0  0
  1  2  2  0
  2  3  1  0
  3  4  1  0
  4  5  1  0
  4  6  1  0
  6  7  1  0
  7  8  2  0
  7  9  1  0
  9 10  1  0
 10 11  1  0
 10 12  1  0
 10 13  1  0
  4 14  1  0
 14 15  2  0
 14 16  1  0
 16 17  1  0
 17 18  1  0
 17 19  1  0
 17 20  1  0
  2 21  1  0
 21 22  1  0
 22 23  1  0
 23 24  1  0
 24 25  1  0
 25 26  1  0
 25 27  1  0
 25 28  1  0
M  END
$$$$

     RDKit          2D

 38 37  0  0  0  0  0  0  0  0999 V2000
    0.0000    0.0000    0.0000 C   0  0  0  0  0  0  0  0  0  0  0  0
    1.2990    0.7500    0.0000 C   0  0  0  0  0  0  0  0  0  0  0  0
    2.5981   -0.0000    0.0000 N   0  0  0  0  0  0  0  0  0  0  0  0
    3.8971    0.7500    0.0000 C   0  0  0  0  0  0  0  0  0  0  0  0
    5.1962   -0.0000    0.0000 C   0  0  0  0  0  0  0  0  0  0  0  0
    6.4952    0.7500    0.0000 O   0  0  0  0  0  0  0  0  0  0  0  0
    7.7942   -0.0000    0.0000 C   0  0  0  0  0  0  0  0  0  0  0  0
    9.0933    0.7500    0.0000 C   0  0  0  0  0  0  0  0  0  0  0  0
   10.3923   -0.0000    0.0000 O   0  0  0  0  0  0  0  0  0  0  0  0
   11.6913    0.7500    0.0000 C   0  0  0  0  0  0  0  0  0  0  0  0
    2.5981   -1.5000    0.0000 S   0  0  0  0  0  0  0  0  0  0  0  0
    1.8069   -1.4028    0.0000 O   0  0  0  0  0  0  0  0  0  0  0  0
    4.0981   -1.5000    0.0000 O   0  0  0  0  0  0  0  0  0  0  0  0
    2.5981   -3.0000    0.0000 C   0  0  0  0  0  0  0  0  0  0  0  0
    4.0981   -3.0000    0.0000 F   0  0  0  0  0  0  0  0  0  0  0  0
    2.5981   -4.5000    0.0000 F   0  0  0  0  0  0  0  0  0  0  0  0
    1.0981   -3.0000    0.0000 C   0  0  0  0  0  0  0  0  0  0  0  0
    0.9901   -2.1209    0.0000 F   0  0  0  0  0  0  0  0  0  0  0  0
    1.0981   -4.5000    0.0000 F   0  0  0  0  0  0  0  0  0  0  0  0
   -0.4019   -3.0000    0.0000 C   0  0  0  0  0  0  0  0  0  0  0  0
   -0.4019   -1.5000    0.0000 F   0  0  0  0  0  0  0  0  0  0  0  0
   -0.4019   -4.5000    0.0000 F   0  0  0  0  0  0  0  0  0  0  0  0
   -1.9019   -3.0000    0.0000 C   0  0  0  0  0  0  0  0  0  0  0  0
   -1.9019   -4.5000    0.0000 F   0  0  0  0  0  0  0  0  0  0  0  0
   -1.9019   -1.5000    0.0000 F   0  0  0  0  0  0  0  0  0  0  0  0
   -3.4019   -3.0000    0.0000 C   0  0  0  0  0  0  0  0  0  0  0  0
   -3.4019   -4.5000    0.0000 F   0  0  0  0  0  0  0  0  0  0  0  0
   -3.4019   -1.5000    0.0000 F   0  0  0  0  0  0  0  0  0  0  0  0
   -4.9019   -3.0000    0.0000 C   0  0  0  0  0  0  0  0  0  0  0  0
   -4.9019   -1.5000    0.0000 F   0  0  0  0  0  0  0  0  0  0  0  0
   -4.9019   -4.5000    0.0000 F   0  0  0  0  0  0  0  0  0  0  0  0
   -6.4019   -3.0000    0.0000 C   0  0  0  0  0  0  0  0  0  0  0  0
   -6.4019   -4.5000    0.0000 F   0  0  0  0  0  0  0  0  0  0  0  0
   -6.4019   -1.5000    0.0000 F   0  0  0  0  0  0  0  0  0  0  0  0
   -7.9019   -3.0000    0.0000 C   0  0  0  0  0  0  0  0  0  0  0  0
   -9.4019   -3.0000    0.0000 F   0  0  0  0  0  0  0  0  0  0  0  0
   -7.9019   -1.5000    0.0000 F   0  0  0  0  0  0  0  0  0  0  0  0
   -7.9019   -4.5000    0.0000 F   0  0  0  0  0  0  0  0  0  0  0  0
  1  2  1  0
  2  3  1  0
  3  4  1  0
  4  5  1  0
  5  6  1  0
  6  7  1  0
  7  8  1  0
  8  9  1  0
  9 10  1  0
  3 11  1  0
 11 12  2  0
 11 13  2  0
 11 14  1  0
 14 15  1  0
 14 16  1  0
 14 17  1  0
 17 18  1  0
 17 19  1  0
 17 20  1  0
 20 21  1  0
 20 22  1  0
 20 23  1  0
 23 24  1  0
 23 25  1  0
 23 26  1  0
 26 27  1  0
 26 28  1  0
 26 29  1  0
 29 30  1  0
 29 31  1  0
 29 32  1  0
 32 33  1  0
 32 34  1  0
 32 35  1  0
 35 36  1  0
 35 37  1  0
 35 38  1  0
M  END
$$$$

     RDKit          2D

  5  4  0  0  0  0  0  0  0  0999 V2000
    0.0000    0.0000    0.0000 R   0  0  0  0  0  0  0  0  0  0  0  0
    1.2990    0.7500    0.0000 C   0  0  0  0  0  0  0  0  0  0  0  0
    2.5981   -0.0000    0.0000 C   0  0  0  0  0  0  0  0  0  0  0  0
    3.8971    0.7500    0.0000 R   0  0  0  0  0  0  0  0  0  0  0  0
    2.5981   -1.5000    0.0000 F   0  0  0  0  0  0  0  0  0  0  0  0
  1  2  1  0
  2  3  1  0
  3  4  1  0
  3  5  1  0
M  END
$$$$

     RDKit          2D

 10  9  0  0  0  0  0  0  0  0999 V2000
   -1.2990    0.7500    0.0000 O   0  0  0  0  0  0  0  0  0  0  0  0
    0.0000    0.0000    0.0000 C   0  0  0  0  0  0  0  0  0  0  0  0
    1.2990    0.7500    0.0000 C   0  0  0  0  0  0  0  0  0  0  0  0
    2.5981   -0.0000    0.0000 O   0  0  0  0  0  0  0  0  0  0  0  0
    3.8971    0.7500    0.0000 C   0  0  0  0  0  0  0  0  0  0  0  0
    5.1962   -0.0000    0.0000 C   0  0  0  0  0  0  0  0  0  0  0  0
    6.4952    0.7500    0.0000 C   0  0  0  0  0  0  0  0  0  0  0  0
    7.7942    1.5000    0.0000 F   0  0  0  0  0  0  0  0  0  0  0  0
    7.2452   -0.5490    0.0000 F   0  0  0  0  0  0  0  0  0  0  0  0
    5.7452    2.0490    0.0000 F   0  0  0  0  0  0  0  0  0  0  0  0
  1  2  1  0
  2  3  1  0
  3  4  1  0
  4  5  1  0
  5  6  1  0
  6  7  1  0
  7  8  1  0
  7  9  1  0
  7 10  1  0
M  END
$$$$

     RDKit          2D

 26 25  0  0  0  0  0  0  0  0999 V2000
    0.0000    0.0000    0.0000 C   0  0  0  0  0  0  0  0  0  0  0  0
    1.2990    0.7500    0.0000 C   0  0  0  0  0  0  0  0  0  0  0  0
    2.5981   -0.0000    0.0000 C   0  0  0  0  0  0  0  0  0  0  0  0
    3.8971    0.7500    0.0000 C   0  0  0  0  0  0  0  0  0  0  0  0
    5.1962   -0.0000    0.0000 C   0  0  0  0  0  0  0  0  0  0  0  0
    6.4952    0.7500    0.0000 C   0  0  0  0  0  0  0  0  0  0  0  0
    7.7942   -0.0000    0.0000 C   0  0  0  0  0  0  0  0  0  0  0  0
    9.0933    0.7500    0.0000 C   0  0  0  0  0  0  0  0  0  0  0  0
   10.3923   -0.0000    0.0000 C   0  0  0  0  0  0  0  0  0  0  0  0
   11.6913    0.7500    0.0000 C   0  0  0  0  0  0  0  0  0  0  0  0
   12.9904   -0.0000    0.0000 C   0  0  0  0  0  0  0  0  0  0  0  0
   14.2894    0.7500    0.0000 C   0  0  0  0  0  0  0  0  0  0  0  0
   15.5885   -0.0000    0.0000 C   0  0  0  0  0  0  0  0  0  0  0  0
   16.8875    0.7500    0.0000 C   0  0  0  0  0  0  0  0  0  0  0  0
   18.1865   -0.0000    0.0000 C   0  0  0  0  0  0  0  0  0  0  0  0
   19.4856    0.7500    0.0000 C   0  0  0  0  0  0  0  0  0  0  0  0
   20.7846   -0.0000    0.0000 C   0  0  0  0  0  0  0  0  0  0  0  0
   22.0836    0.7500    0.0000 C   0  0  0  0  0  0  0  0  0  0  0  0
   22.0836    2.2500    0.0000 O   0  0  0  0  0  0  0  0  0  0  0  0
   23.3827   -0.0000    0.0000 O   0  0  0  0  0  0  0  0  0  0  0  0
   24.6817    0.7500    0.0000 C   0  0  0  0  0  0  0  0  0  0  0  0
   25.9808   -0.0000    0.0000 C   0  0  0  0  0  0  0  0  0  0  0  0
   27.2798    0.7500    0.0000 C   0  0  0  0  0  0  0  0  0  0  0  0
   28.5788    1.5000    0.0000 F   0  0  0  0  0  0  0  0  0  0  0  0
   28.0298   -0.5490    0.0000 F   0  0  0  0  0  0  0  0  0  0  0  0
   26.5298    2.0490    0.0000 F   0  0  0  0  0  0  0  0  0  0  0  0
  1  2  1  0
  2  3  1  0
  3  4  1  0
  4  5  1  0
  5  6  1  0
  6  7  1  0
  7  8  1  0
  8  9  1  0
  9 10  1  0
 10 11  1  0
 11 12  1  0
 12 13  1  0
 13 14  1  0
 14 15  1  0
 15 16  1  0
 16 17  1  0
 17 18  1  0
 18 19  2  0
 18 20  1  0
 20 21  1  0
 21 22  1  0
 22 23  1  0
 23 24  1  0
 23 25  1  0
 23 26  1  0
M  END
$$$$

     RDKit          2D

 26 25  0  0  0  0  0  0  0  0999 V2000
   -1.2990    0.7500    0.0000 O   0  0  0  0  0  0  0  0  0  0  0  0
    0.0000    0.0000    0.0000 C   0  0  0  0  0  0  0  0  0  0  0  0
    1.2990    0.7500    0.0000 C   0  0  0  0  0  0  0  0  0  0  0  0
    1.2990    2.2500    0.0000 S   0  0  0  0  0  0  0  0  0  0  0  0
    2.5981    3.0000    0.0000 C   0  0  0  0  0  0  0  0  0  0  0  0
    2.5981    4.5000    0.0000 C   0  0  0  0  0  0  0  0  0  0  0  0
    3.8971    5.2500    0.0000 C   0  0  0  0  0  0  0  0  0  0  0  0
    3.1471    6.5490    0.0000 F   0  0  0  0  0  0  0  0  0  0  0  0
    4.6471    3.9510    0.0000 F   0  0  0  0  0  0  0  0  0  0  0  0
    5.1962    6.0000    0.0000 C   0  0  0  0  0  0  0  0  0  0  0  0
    6.4952    6.7500    0.0000 F   0  0  0  0  0  0  0  0  0  0  0  0
    5.9462    4.7010    0.0000 F   0  0  0  0  0  0  0  0  0  0  0  0
    4.4462    7.2990    0.0000 F   0  0  0  0  0  0  0  0  0  0  0  0
    2.5981   -0.0000    0.0000 C   0  0  0  0  0  0  0  0  0  0  0  0
    3.8971    0.7500    0.0000 C   0  0  0  0  0  0  0  0  0  0  0  0
    5.1962   -0.0000    0.0000 O   0  0  0  0  0  0  0  0  0  0  0  0
    2.5981   -1.5000    0.0000 S   0  0  0  0  0  0  0  0  0  0  0  0
    3.8971   -2.2500    0.0000 C   0  0  0  0  0  0  0  0  0  0  0  0
    3.8971   -3.7500    0.0000 C   0  0  0  0  0  0  0  0  0  0  0  0
    5.1962   -4.5000    0.0000 C   0  0  0  0  0  0  0  0  0  0  0  0
    4.4462   -5.7990    0.0000 F   0  0  0  0  0  0  0  0  0  0  0  0
    5.9462   -3.2010    0.0000 F   0  0  0  0  0  0  0  0  0  0  0  0
    6.4952   -5.2500    0.0000 C   0  0  0  0  0  0  0  0  0  0  0  0
    7.7942   -6.0000    0.0000 F   0  0  0  0  0  0  0  0  0  0  0  0
    7.2452   -3.9510    0.0000 F   0  0  0  0  0  0  0  0  0  0  0  0
    5.7452   -6.5490    0.0000 F   0  0  0  0  0  0  0  0  0  0  0  0
  1  2  1  0
  2  3  1  0
  3  4  1  0
  4  5  1  0
  5  6  1  0
  6  7  1  0
  7  8  1  0
  7  9  1  0
  7 10  1  0
 10 11  1  0
 10 12  1  0
 10 13  1  0
  3 14  1  0
 14 15  1  0
 15 16  1  0
 14 17  1  0
 17 18  1  0
 18 19  1  0
 19 20  1  0
 20 21  1  0
 20 22  1  0
 20 23  1  0
 23 24  1  0
 23 25  1  0
 23 26  1  0
M  END
$$$$

     RDKit          2D

 24 23  0  0  0  0  0  0  0  0999 V2000
   -3.8971    2.2500    0.0000 O   0  0  0  0  0  0  0  0  0  0  0  0
   -3.8971    0.7500    0.0000 C   0  0  0  0  0  0  0  0  0  0  0  0
   -5.1962    0.0000    0.0000 O   0  0  0  0  0  0  0  0  0  0  0  0
   -2.5981    0.0000    0.0000 C   0  0  0  0  0  0  0  0  0  0  0  0
   -1.2990    0.7500    0.0000 S   0  0  0  0  0  0  0  0  0  0  0  0
    0.0000    0.0000    0.0000 C   0  0  0  0  0  0  0  0  0  0  0  0
    1.2990    0.7500    0.0000 C   0  0  0  0  0  0  0  0  0  0  0  0
    2.5981   -0.0000    0.0000 C   0  0  0  0  0  0  0  0  0  0  0  0
    3.3481    1.2990    0.0000 F   0  0  0  0  0  0  0  0  0  0  0  0
    1.8481   -1.2990    0.0000 F   0  0  0  0  0  0  0  0  0  0  0  0
    3.8971   -0.7500    0.0000 C   0  0  0  0  0  0  0  0  0  0  0  0
    5.1962   -1.5000    0.0000 F   0  0  0  0  0  0  0  0  0  0  0  0
    3.1471   -2.0490    0.0000 F   0  0  0  0  0  0  0  0  0  0  0  0
    4.6471    0.5490    0.0000 F   0  0  0  0  0  0  0  0  0  0  0  0
   -2.5981   -1.5000    0.0000 S   0  0  0  0  0  0  0  0  0  0  0  0
   -3.8971   -2.2500    0.0000 C   0  0  0  0  0  0  0  0  0  0  0  0
   -3.8971   -3.7500    0.0000 C   0  0  0  0  0  0  0  0  0  0  0  0
   -5.1962   -4.5000    0.0000 C   0  0  0  0  0  0  0  0  0  0  0  0
   -4.4462   -5.7990    0.0000 F   0  0  0  0  0  0  0  0  0  0  0  0
   -5.9462   -3.2010    0.0000 F   0  0  0  0  0  0  0  0  0  0  0  0
   -6.4952   -5.2500    0.0000 C   0  0  0  0  0  0  0  0  0  0  0  0
   -7.7942   -6.0000    0.0000 F   0  0  0  0  0  0  0  0  0  0  0  0
   -7.2452   -3.9510    0.0000 F   0  0  0  0  0  0  0  0  0  0  0  0
   -5.7452   -6.5490    0.0000 F   0  0  0  0  0  0  0  0  0  0  0  0
  1  2  2  0
  2  3  1  0
  2  4  1  0
  4  5  1  0
  5  6  1  0
  6  7  1  0
  7  8  1  0
  8  9  1  0
  8 10  1  0
  8 11  1  0
 11 12  1  0
 11 13  1  0
 11 14  1  0
  4 15  1  0
 15 16  1  0
 16 17  1  0
 17 18  1  0
 18 19  1  0
 18 20  1  0
 18 21  1  0
 21 22  1  0
 21 23  1  0
 21 24  1  0
M  END
$$$$

     RDKit          2D

 34 33  0  0  0  0  0  0  0  0999 V2000
    0.0000    0.0000    0.0000 C   0  0  0  0  0  0  0  0  0  0  0  0
    1.2990    0.7500    0.0000 C   0  0  0  0  0  0  0  0  0  0  0  0
    2.5981   -0.0000    0.0000 N   0  0  0  0  0  0  0  0  0  0  0  0
    3.8971    0.7500    0.0000 C   0  0  0  0  0  0  0  0  0  0  0  0
    5.1962   -0.0000    0.0000 C   0  0  0  0  0  0  0  0  0  0  0  0
    6.4952    0.7500    0.0000 O   0  0  0  0  0  0  0  0  0  0  0  0
    7.7942   -0.0000    0.0000 C   0  0  0  0  0  0  0  0  0  0  0  0
    9.0933    0.7500    0.0000 C   0  0  0  0  0  0  0  0  0  0  0  0
   10.3923   -0.0000    0.0000 O   0  0  0  0  0  0  0  0  0  0  0  0
    2.5981   -1.5000    0.0000 S   0  0  0  0  0  0  0  0  0  0  0  0
    1.8069   -1.4028    0.0000 O   0  0  0  0  0  0  0  0  0  0  0  0
    4.0981   -1.5000    0.0000 O   0  0  0  0  0  0  0  0  0  0  0  0
    2.5981   -3.0000    0.0000 C   0  0  0  0  0  0  0  0  0  0  0  0
    4.0981   -3.0000    0.0000 F   0  0  0  0  0  0  0  0  0  0  0  0
    2.5981   -4.5000    0.0000 F   0  0  0  0  0  0  0  0  0  0  0  0
    1.0981   -3.0000    0.0000 C   0  0  0  0  0  0  0  0  0  0  0  0
    0.9901   -2.1209    0.0000 F   0  0  0  0  0  0  0  0  0  0  0  0
    1.0981   -4.5000    0.0000 F   0  0  0  0  0  0  0  0  0  0  0  0
   -0.4019   -3.0000    0.0000 C   0  0  0  0  0  0  0  0  0  0  0  0
   -0.4019   -1.5000    0.0000 F   0  0  0  0  0  0  0  0  0  0  0  0
   -0.4019   -4.5000    0.0000 F   0  0  0  0  0  0  0  0  0  0  0  0
   -1.9019   -3.0000    0.0000 C   0  0  0  0  0  0  0  0  0  0  0  0
   -1.9019   -4.5000    0.0000 F   0  0  0  0  0  0  0  0  0  0  0  0
   -1.9019   -1.5000    0.0000 F   0  0  0  0  0  0  0  0  0  0  0  0
   -3.4019   -3.0000    0.0000 C   0  0  0  0  0  0  0  0  0  0  0  0
   -3.4019   -4.5000    0.0000 F   0  0  0  0  0  0  0  0  0  0  0  0
   -3.4019   -1.5000    0.0000 F   0  0  0  0  0  0  0  0  0  0  0  0
   -4.9019   -3.0000    0.0000 C   0  0  0  0  0  0  0  0  0  0  0  0
   -4.9019   -1.5000    0.0000 F   0  0  0  0  0  0  0  0  0  0  0  0
   -4.9019   -4.5000    0.0000 F   0  0  0  0  0  0  0  0  0  0  0  0
   -6.4019   -3.0000    0.0000 C   0  0  0  0  0  0  0  0  0  0  0  0
   -7.9019   -3.0000    0.0000 F   0  0  0  0  0  0  0  0  0  0  0  0
   -6.4019   -4.5000    0.0000 F   0  0  0  0  0  0  0  0  0  0  0  0
   -6.4019   -1.5000    0.0000 F   0  0  0  0  0  0  0  0  0  0  0  0
  1  2  1  0
  2  3  1  0
  3  4  1  0
  4  5  1  0
  5  6  1  0
  6  7  1  0
  7  8  1  0
  8  9  1  0
  3 10  1  0
 10 11  2  0
 10 12  2  0
 10 13  1  0
 13 14  1  0
 13 15  1  0
 13 16  1  0
 16 17  1  0
 16 18  1  0
 16 19  1  0
 19 20  1  0
 19 21  1  0
 19 22  1  0
 22 23  1  0
 22 24  1  0
 22 25  1  0
 25 26  1  0
 25 27  1  0
 25 28  1  0
 28 29  1  0
 28 30  1  0
 28 31  1  0
 31 32  1  0
 31 33  1  0
 31 34  1  0
M  END
$$$$

     RDKit          2D

 21 19  0  0  0  0  0  0  0  0999 V2000
    0.0000    0.0000    0.0000 C   0  0  0  0  0  0  0  0  0  0  0  0
    1.2990    0.7500    0.0000 C   0  0  0  0  0  0  0  0  0  0  0  0
    2.5981    1.5000    0.0000 C   0  0  0  0  0  0  0  0  0  0  0  0
    2.0490   -0.5490    0.0000 C   0  0  0  0  0  0  0  0  0  0  0  0
    3.5490   -0.5490    0.0000 S   0  0  0  0  0  0  0  0  0  0  0  0
    3.5490   -2.0490    0.0000 O   0  0  0  0  0  0  0  0  0  0  0  0
    3.5490    0.9510    0.0000 O   0  0  0  0  0  0  0  0  0  0  0  0
    5.0490   -0.5490    0.0000 O   0  0  0  0  0  0  0  0  0  0  0  0
    0.5490    2.0490    0.0000 N   0  0  0  0  0  0  0  0  0  0  0  0
    1.2990    3.3481    0.0000 C   0  0  0  0  0  0  0  0  0  0  0  0
    2.7990    3.3481    0.0000 O   0  0  0  0  0  0  0  0  0  0  0  0
    0.5490    4.6471    0.0000 C   0  0  0  0  0  0  0  0  0  0  0  0
    1.2990    5.9462    0.0000 C   0  0  0  0  0  0  0  0  0  0  0  0
    0.5490    7.2452    0.0000 S   0  0  0  0  0  0  0  0  0  0  0  0
    1.2990    8.5442    0.0000 C   0  0  0  0  0  0  0  0  0  0  0  0
    0.5490    9.8433    0.0000 C   0  0  0  0  0  0  0  0  0  0  0  0
    1.2990   11.1423    0.0000 C   0  0  0  0  0  0  0  0  0  0  0  0
    2.0490   12.4413    0.0000 F   0  0  0  0  0  0  0  0  0  0  0  0
    0.0000   11.8923    0.0000 F   0  0  0  0  0  0  0  0  0  0  0  0
    2.5981   10.3923    0.0000 F   0  0  0  0  0  0  0  0  0  0  0  0
    6.0490    0.0000    0.0000 Na  0  0  0  0  0 15  0  0  0  0  0  0
  1  2  1  0
  2  3  1  0
  2  4  1  0
  4  5  1  0
  5  6  2  0
  5  7  2  0
  5  8  1  0
  2  9  1  0
  9 10  1  0
 10 11  2  0
 10 12  1  0
 12 13  1  0
 13 14  1  0
 14 15  1  0
 15 16  1  0
 16 17  1  0
 17 18  1  0
 17 19  1  0
 17 20  1  0
M  CHG  2   8  -1  21   1
M  END
$$$$

     RDKit          2D

 18 16  0  0  0  0  0  0  0  0999 V2000
   -1.8481   -1.2990    0.0000 O   0  0  0  0  0  0  0  0  0  0  0  0
   -2.5981    0.0000    0.0000 P   0  0  0  0  0  0  0  0  0  0  0  0
   -3.3481    1.2990    0.0000 O   0  0  0  0  0  0  0  0  0  0  0  0
   -1.2990    0.7500    0.0000 O   0  0  0  0  0  0  0  0  0  0  0  0
    0.0000    0.0000    0.0000 C   0  0  0  0  0  0  0  0  0  0  0  0
    1.2990    0.7500    0.0000 C   0  0  0  0  0  0  0  0  0  0  0  0
    2.5981   -0.0000    0.0000 C   0  0  0  0  0  0  0  0  0  0  0  0
    3.8971   -0.7500    0.0000 F   0  0  0  0  0  0  0  0  0  0  0  0
    3.3481    1.2990    0.0000 F   0  0  0  0  0  0  0  0  0  0  0  0
    1.8481   -1.2990    0.0000 F   0  0  0  0  0  0  0  0  0  0  0  0
   -3.8971   -0.7500    0.0000 O   0  0  0  0  0  0  0  0  0  0  0  0
   -3.8971   -2.2500    0.0000 C   0  0  0  0  0  0  0  0  0  0  0  0
   -5.1962   -3.0000    0.0000 C   0  0  0  0  0  0  0  0  0  0  0  0
   -5.1962   -4.5000    0.0000 C   0  0  0  0  0  0  0  0  0  0  0  0
   -5.1962   -6.0000    0.0000 F   0  0  0  0  0  0  0  0  0  0  0  0
   -6.6962   -4.5000    0.0000 F   0  0  0  0  0  0  0  0  0  0  0  0
   -3.6962   -4.5000    0.0000 F   0  0  0  0  0  0  0  0  0  0  0  0
    0.0000    2.2990    0.0000 N   0  0  0  0  0  0  0  0  0  0  0  0
  1  2  2  0
  2  3  1  0
  2  4  1  0
  4  5  1  0
  5  6  1  0
  6  7  1  0
  7  8  1  0
  7  9  1  0
  7 10  1  0
  2 11  1  0
 11 12  1  0
 12 13  1  0
 13 14  1  0
 14 15  1  0
 14 16  1  0
 14 17  1  0
M  CHG  2   3  -1  18   1
M  END
$$$$

     RDKit          2D

 40 39  0  0  0  0  0  0  0  0999 V2000
   23.3827    0.0000    0.0000 C   0  0  0  0  0  0  0  0  0  0  0  0
   22.0836    0.7500    0.0000 C   0  0  0  0  0  0  0  0  0  0  0  0
   20.7846    0.0000    0.0000 C   0  0  0  0  0  0  0  0  0  0  0  0
   19.4856    0.7500    0.0000 C   0  0  0  0  0  0  0  0  0  0  0  0
   18.1865    0.0000    0.0000 O   0  0  0  0  0  0  0  0  0  0  0  0
   16.8875    0.7500    0.0000 C   0  0  0  0  0  0  0  0  0  0  0  0
   15.5885   -0.0000    0.0000 C   0  0  0  0  0  0  0  0  0  0  0  0
   14.2894    0.7500    0.0000 O   0  0  0  0  0  0  0  0  0  0  0  0
   12.9904   -0.0000    0.0000 C   0  0  0  0  0  0  0  0  0  0  0  0
   12.9904   -1.5000    0.0000 O   0  0  0  0  0  0  0  0  0  0  0  0
   11.6913    0.7500    0.0000 N   0  0  0  0  0  0  0  0  0  0  0  0
   10.3923   -0.0000    0.0000 C   0  0  0  0  0  0  0  0  0  0  0  0
   11.6913    2.2500    0.0000 S   0  0  0  0  0  0  0  0  0  0  0  0
   13.1913    2.2500    0.0000 O   0  0  0  0  0  0  0  0  0  0  0  0
   10.9001    2.1528    0.0000 O   0  0  0  0  0  0  0  0  0  0  0  0
   11.6913    3.7500    0.0000 C   0  0  0  0  0  0  0  0  0  0  0  0
   13.1913    3.7500    0.0000 F   0  0  0  0  0  0  0  0  0  0  0  0
   11.6913    5.2500    0.0000 F   0  0  0  0  0  0  0  0  0  0  0  0
   10.1913    3.7500    0.0000 C   0  0  0  0  0  0  0  0  0  0  0  0
   10.0834    2.8709    0.0000 F   0  0  0  0  0  0  0  0  0  0  0  0
   10.1913    5.2500    0.0000 F   0  0  0  0  0  0  0  0  0  0  0  0
    8.6913    3.7500    0.0000 C   0  0  0  0  0  0  0  0  0  0  0  0
    8.6913    2.2500    0.0000 F   0  0  0  0  0  0  0  0  0  0  0  0
    8.6913    5.2500    0.0000 F   0  0  0  0  0  0  0  0  0  0  0  0
    7.1913    3.7500    0.0000 C   0  0  0  0  0  0  0  0  0  0  0  0
    7.1913    2.2500    0.0000 F   0  0  0  0  0  0  0  0  0  0  0  0
    7.1913    5.2500    0.0000 F   0  0  0  0  0  0  0  0  0  0  0  0
    5.6913    3.7500    0.0000 C   0  0  0  0  0  0  0  0  0  0  0  0
    5.6913    5.2500    0.0000 F   0  0  0  0  0  0  0  0  0  0  0  0
    5.6913    2.2500    0.0000 F   0  0  0  0  0  0  0  0  0  0  0  0
    4.1913    3.7500    0.0000 C   0  0  0  0  0  0  0  0  0  0  0  0
    4.1913    5.2500    0.0000 F   0  0  0  0  0  0  0  0  0  0  0  0
    4.1913    2.2500    0.0000 F   0  0  0  0  0  0  0  0  0  0  0  0
    2.6913    3.7500    0.0000 C   0  0  0  0  0  0  0  0  0  0  0  0
    2.6913    5.2500    0.0000 F   0  0  0  0  0  0  0  0  0  0  0  0
    2.6913    2.2500    0.0000 F   0  0  0  0  0  0  0  0  0  0  0  0
    1.1913    3.7500    0.0000 C   0  0  0  0  0  0  0  0  0  0  0  0
   -0.3087    3.7500    0.0000 F   0  0  0  0  0  0  0  0  0  0  0  0
    1.1913    5.2500    0.0000 F   0  0  0  0  0  0  0  0  0  0  0  0
    1.1913    2.2500    0.0000 F   0  0  0  0  0  0  0  0  0  0  0  0
  1  2  1  0
  2  3  1  0
  3  4  1  0
  4  5  1  0
  5  6  1  0
  6  7  1  0
  7  8  1  0
  8  9  1  0
  9 10  2  0
  9 11  1  0
 11 12  1  0
 11 13  1  0
 13 14  2  0
 13 15  2  0
 13 16  1  0
 16 17  1  0
 16 18  1  0
 16 19  1  0
 19 20  1  0
 19 21  1  0
 19 22  1  0
 22 23  1  0
 22 24  1  0
 22 25  1  0
 25 26  1  0
 25 27  1  0
 25 28  1  0
 28 29  1  0
 28 30  1  0
 28 31  1  0
 31 32  1  0
 31 33  1  0
 31 34  1  0
 34 35  1  0
 34 36  1  0
 34 37  1  0
 37 38  1  0
 37 39  1  0
 37 40  1  0
M  END
$$$$

     RDKit          2D

 23 22  0  0  0  0  0  0  0  0999 V2000
   -1.2990    0.7500    0.0000 O   0  0  0  0  0  0  0  0  0  0  0  0
    0.0000    0.0000    0.0000 C   0  0  0  0  0  0  0  0  0  0  0  0
    1.2990    0.7500    0.0000 C   0  0  0  0  0  0  0  0  0  0  0  0
    2.5981   -0.0000    0.0000 O   0  0  0  0  0  0  0  0  0  0  0  0
    3.8971    0.7500    0.0000 C   0  0  0  0  0  0  0  0  0  0  0  0
    3.1471    2.0490    0.0000 F   0  0  0  0  0  0  0  0  0  0  0  0
    4.6471   -0.5490    0.0000 F   0  0  0  0  0  0  0  0  0  0  0  0
    5.1962    1.5000    0.0000 C   0  0  0  0  0  0  0  0  0  0  0  0
    5.9462    0.2010    0.0000 F   0  0  0  0  0  0  0  0  0  0  0  0
    4.4462    2.7990    0.0000 F   0  0  0  0  0  0  0  0  0  0  0  0
    6.4952    2.2500    0.0000 C   0  0  0  0  0  0  0  0  0  0  0  0
    5.7452    3.5490    0.0000 F   0  0  0  0  0  0  0  0  0  0  0  0
    7.2452    0.9510    0.0000 F   0  0  0  0  0  0  0  0  0  0  0  0
    7.7942    3.0000    0.0000 C   0  0  0  0  0  0  0  0  0  0  0  0
    7.0442    4.2990    0.0000 F   0  0  0  0  0  0  0  0  0  0  0  0
    8.5442    1.7010    0.0000 F   0  0  0  0  0  0  0  0  0  0  0  0
    9.0933    3.7500    0.0000 C   0  0  0  0  0  0  0  0  0  0  0  0
    9.8433    2.4510    0.0000 F   0  0  0  0  0  0  0  0  0  0  0  0
    8.3433    5.0490    0.0000 F   0  0  0  0  0  0  0  0  0  0  0  0
   10.3923    4.5000    0.0000 C   0  0  0  0  0  0  0  0  0  0  0  0
   11.6913    5.2500    0.0000 F   0  0  0  0  0  0  0  0  0  0  0  0
    9.6423    5.7990    0.0000 F   0  0  0  0  0  0  0  0  0  0  0  0
   11.1423    3.2010    0.0000 F   0  0  0  0  0  0  0  0  0  0  0  0
  1  2  1  0
  2  3  1  0
  3  4  1  0
  4  5  1  0
  5  6  1  0
  5  7  1  0
  5  8  1  0
  8  9  1  0
  8 10  1  0
  8 11  1  0
 11 12  1  0
 11 13  1  0
 11 14  1  0
 14 15  1  0
 14 16  1  0
 14 17  1  0
 17 18  1  0
 17 19  1  0
 17 20  1  0
 20 21  1  0
 20 22  1  0
 20 23  1  0
M  END
$$$$

     RDKit          2D

 40 39  0  0  0  0  0  0  0  0999 V2000
    0.0000    0.0000    0.0000 C   0  0  0  0  0  0  0  0  0  0  0  0
    1.2990    0.7500    0.0000 C   0  0  0  0  0  0  0  0  0  0  0  0
    2.5981   -0.0000    0.0000 C   0  0  0  0  0  0  0  0  0  0  0  0
    3.8971    0.7500    0.0000 N   0  0  0  0  0  0  0  0  0  0  0  0
    5.1962   -0.0000    0.0000 C   0  0  0  0  0  0  0  0  0  0  0  0
    6.4952    0.7500    0.0000 C   0  0  0  0  0  0  0  0  0  0  0  0
    7.7942   -0.0000    0.0000 O   0  0  0  0  0  0  0  0  0  0  0  0
    9.0933    0.7500    0.0000 C   0  0  0  0  0  0  0  0  0  0  0  0
   10.3923   -0.0000    0.0000 C   0  0  0  0  0  0  0  0  0  0  0  0
   11.6913    0.7500    0.0000 O   0  0  0  0  0  0  0  0  0  0  0  0
    3.8971    2.2500    0.0000 S   0  0  0  0  0  0  0  0  0  0  0  0
    2.3971    2.2500    0.0000 O   0  0  0  0  0  0  0  0  0  0  0  0
    5.3971    2.2500    0.0000 O   0  0  0  0  0  0  0  0  0  0  0  0
    3.8971    3.7500    0.0000 C   0  0  0  0  0  0  0  0  0  0  0  0
    2.5981    4.5000    0.0000 C   0  0  0  0  0  0  0  0  0  0  0  0
    2.5981    6.0000    0.0000 C   0  0  0  0  0  0  0  0  0  0  0  0
    1.0981    6.0000    0.0000 F   0  0  0  0  0  0  0  0  0  0  0  0
    4.0981    6.0000    0.0000 F   0  0  0  0  0  0  0  0  0  0  0  0
    2.5981    7.5000    0.0000 C   0  0  0  0  0  0  0  0  0  0  0  0
    4.0981    7.5000    0.0000 F   0  0  0  0  0  0  0  0  0  0  0  0
    1.0981    7.5000    0.0000 F   0  0  0  0  0  0  0  0  0  0  0  0
    2.5981    9.0000    0.0000 C   0  0  0  0  0  0  0  0  0  0  0  0
    1.0981    9.0000    0.0000 F   0  0  0  0  0  0  0  0  0  0  0  0
    4.0981    9.0000    0.0000 F   0  0  0  0  0  0  0  0  0  0  0  0
    2.5981   10.5000    0.0000 C   0  0  0  0  0  0  0  0  0  0  0  0
    4.0981   10.5000    0.0000 F   0  0  0  0  0  0  0  0  0  0  0  0
    1.0981   10.5000    0.0000 F   0  0  0  0  0  0  0  0  0  0  0  0
    2.5981   12.0000    0.0000 C   0  0  0  0  0  0  0  0  0  0  0  0
    1.0981   12.0000    0.0000 F   0  0  0  0  0  0  0  0  0  0  0  0
    4.0981   12.0000    0.0000 F   0  0  0  0  0  0  0  0  0  0  0  0
    2.5981   13.5000    0.0000 C   0  0  0  0  0  0  0  0  0  0  0  0
    4.0981   13.5000    0.0000 F   0  0  0  0  0  0  0  0  0  0  0  0
    1.0981   13.5000    0.0000 F   0  0  0  0  0  0  0  0  0  0  0  0
    2.5981   15.0000    0.0000 C   0  0  0  0  0  0  0  0  0  0  0  0
    1.0981   15.0000    0.0000 F   0  0  0  0  0  0  0  0  0  0  0  0
    4.0981   15.0000    0.0000 F   0  0  0  0  0  0  0  0  0  0  0  0
    2.5981   16.5000    0.0000 C   0  0  0  0  0  0  0  0  0  0  0  0
    2.5981   18.0000    0.0000 F   0  0  0  0  0  0  0  0  0  0  0  0
    4.0981   16.5000    0.0000 F   0  0  0  0  0  0  0  0  0  0  0  0
    1.0981   16.5000    0.0000 F   0  0  0  0  0  0  0  0  0  0  0  0
  1  2  1  0
  2  3  1  0
  3  4  1  0
  4  5  1  0
  5  6  1  0
  6  7  1  0
  7  8  1  0
  8  9  1  0
  9 10  1  0
  4 11  1  0
 11 12  2  0
 11 13  2  0
 11 14  1  0
 14 15  1  0
 15 16  1  0
 16 17  1  0
 16 18  1  0
 16 19  1  0
 19 20  1  0
 19 21  1  0
 19 22  1  0
 22 23  1  0
 22 24  1  0
 22 25  1  0
 25 26  1  0
 25 27  1  0
 25 28  1  0
 28 29  1  0
 28 30  1  0
 28 31  1  0
 31 32  1  0
 31 33  1  0
 31 34  1  0
 34 35  1  0
 34 36  1  0
 34 37  1  0
 37 38  1  0
 37 39  1  0
 37 40  1  0
M  END
$$$$

     RDKit          2D

 44 42  0  0  0  0  0  0  0  0999 V2000
   -0.0000   -0.0000    0.0000 C   0  0  0  0  0  0  0  0  0  0  0  0
    1.2990    0.7500    0.0000 C   0  0  0  0  0  0  0  0  0  0  0  0
    2.5981   -0.0000    0.0000 C   0  0  0  0  0  0  0  0  0  0  0  0
    3.8971    0.7500    0.0000 N   0  0  0  0  0  0  0  0  0  0  0  0
    5.1962    0.0000    0.0000 C   0  0  0  0  0  0  0  0  0  0  0  0
    6.4952    0.7500    0.0000 C   0  0  0  0  0  0  0  0  0  0  0  0
    7.7942   -0.0000    0.0000 O   0  0  0  0  0  0  0  0  0  0  0  0
    9.0933    0.7500    0.0000 C   0  0  0  0  0  0  0  0  0  0  0  0
   10.3923   -0.0000    0.0000 C   0  0  0  0  0  0  0  0  0  0  0  0
   11.6913    0.7500    0.0000 O   0  0  0  0  0  0  0  0  0  0  0  0
   12.9904   -0.0000    0.0000 C   0  0  0  0  0  0  0  0  0  0  0  0
   14.2894    0.7500    0.0000 C   0  0  0  0  0  0  0  0  0  0  0  0
   15.5885   -0.0000    0.0000 C   0  0  0  0  0  0  0  0  0  0  0  0
   15.5885   -1.5000    0.0000 O   0  0  0  0  0  0  0  0  0  0  0  0
   16.8875    0.7500    0.0000 O   0  0  0  0  0  0  0  0  0  0  0  0
    3.8971    2.2500    0.0000 S   0  0  0  0  0  0  0  0  0  0  0  0
    3.1059    2.1528    0.0000 O   0  0  0  0  0  0  0  0  0  0  0  0
    5.3971    2.2500    0.0000 O   0  0  0  0  0  0  0  0  0  0  0  0
    3.8971    3.7500    0.0000 C   0  0  0  0  0  0  0  0  0  0  0  0
    5.3971    3.7500    0.0000 F   0  0  0  0  0  0  0  0  0  0  0  0
    3.8971    5.2500    0.0000 F   0  0  0  0  0  0  0  0  0  0  0  0
    2.3971    3.7500    0.0000 C   0  0  0  0  0  0  0  0  0  0  0  0
    2.2891    2.8709    0.0000 F   0  0  0  0  0  0  0  0  0  0  0  0
    2.3971    5.2500    0.0000 F   0  0  0  0  0  0  0  0  0  0  0  0
    0.8971    3.7500    0.0000 C   0  0  0  0  0  0  0  0  0  0  0  0
    0.8971    2.2500    0.0000 F   0  0  0  0  0  0  0  0  0  0  0  0
    0.8971    5.2500    0.0000 F   0  0  0  0  0  0  0  0  0  0  0  0
   -0.6029    3.7500    0.0000 C   0  0  0  0  0  0  0  0  0  0  0  0
   -0.6029    2.2500    0.0000 F   0  0  0  0  0  0  0  0  0  0  0  0
   -0.6029    5.2500    0.0000 F   0  0  0  0  0  0  0  0  0  0  0  0
   -2.1029    3.7500    0.0000 C   0  0  0  0  0  0  0  0  0  0  0  0
   -2.1029    2.2500    0.0000 F   0  0  0  0  0  0  0  0  0  0  0  0
   -2.1029    5.2500    0.0000 F   0  0  0  0  0  0  0  0  0  0  0  0
   -3.6029    3.7500    0.0000 C   0  0  0  0  0  0  0  0  0  0  0  0
   -3.6029    5.2500    0.0000 F   0  0  0  0  0  0  0  0  0  0  0  0
   -3.6029    2.2500    0.0000 F   0  0  0  0  0  0  0  0  0  0  0  0
   -5.1029    3.7500    0.0000 C   0  0  0  0  0  0  0  0  0  0  0  0
   -5.1029    2.2500    0.0000 F   0  0  0  0  0  0  0  0  0  0  0  0
   -5.1029    5.2500    0.0000 F   0  0  0  0  0  0  0  0  0  0  0  0
   -6.6029    3.7500    0.0000 C   0  0  0  0  0  0  0  0  0  0  0  0
   -8.1029    3.7500    0.0000 F   0  0  0  0  0  0  0  0  0  0  0  0
   -6.6029    5.2500    0.0000 F   0  0  0  0  0  0  0  0  0  0  0  0
   -6.6029    2.2500    0.0000 F   0  0  0  0  0  0  0  0  0  0  0  0
    0.0000    6.2500    0.0000 K   0  0  0  0  0 15  0  0  0  0  0  0
  1  2  1  0
  2  3  1  0
  3  4  1  0
  4  5  1  0
  5  6  1  0
  6  7  1  0
  7  8  1  0
  8  9  1  0
  9 10  1  0
 10 11  1  0
 11 12  1  0
 12 13  1  0
 13 14  2  0
 13 15  1  0
  4 16  1  0
 16 17  2  0
 16 18  2  0
 16 19  1  0
 19 20  1  0
 19 21  1  0
 19 22  1  0
 22 23  1  0
 22 24  1  0
 22 25  1  0
 25 26  1  0
 25 27  1  0
 25 28  1  0
 28 29  1  0
 28 30  1  0
 28 31  1  0
 31 32  1  0
 31 33  1  0
 31 34  1  0
 34 35  1  0
 34 36  1  0
 34 37  1  0
 37 38  1  0
 37 39  1  0
 37 40  1  0
 40 41  1  0
 40 42  1  0
 40 43  1  0
M  CHG  2  15  -1  44   1
M  END
$$$$

     RDKit          2D

 12 11  0  0  0  0  0  0  0  0999 V2000
    0.0000    0.0000    0.0000 C   0  0  0  0  0  0  0  0  0  0  0  0
    1.2990    0.7500    0.0000 C   0  0  0  0  0  0  0  0  0  0  0  0
    2.5981   -0.0000    0.0000 C   0  0  0  0  0  0  0  0  0  0  0  0
    1.2990    2.2500    0.0000 C   0  0  0  0  0  0  0  0  0  0  0  0
    0.0000    3.0000    0.0000 O   0  0  0  0  0  0  0  0  0  0  0  0
    2.5981    3.0000    0.0000 O   0  0  0  0  0  0  0  0  0  0  0  0
    2.5981    4.5000    0.0000 C   0  0  0  0  0  0  0  0  0  0  0  0
    3.8971    5.2500    0.0000 C   0  0  0  0  0  0  0  0  0  0  0  0
    3.8971    6.7500    0.0000 C   0  0  0  0  0  0  0  0  0  0  0  0
    3.8971    8.2500    0.0000 F   0  0  0  0  0  0  0  0  0  0  0  0
    5.3971    6.7500    0.0000 F   0  0  0  0  0  0  0  0  0  0  0  0
    2.3971    6.7500    0.0000 F   0  0  0  0  0  0  0  0  0  0  0  0
  1  2  2  0
  2  3  1  0
  2  4  1  0
  4  5  2  0
  4  6  1  0
  6  7  1  0
  7  8  1  0
  8  9  1  0
  9 10  1  0
  9 11  1  0
  9 12  1  0
M  END
$$$$

     RDKit          2D

 30 27  0  0  0  0  0  0  0  0999 V2000
    0.0000    0.0000    0.0000 R   0  0  0  0  0  0  0  0  0  0  0  0
    1.2990    0.7500    0.0000 C   0  0  0  0  0  0  0  0  0  0  0  0
    2.5981    1.5000    0.0000 F   0  0  0  0  0  0  0  0  0  0  0  0
    2.0490   -0.5490    0.0000 F   0  0  0  0  0  0  0  0  0  0  0  0
    0.5490    2.0490    0.0000 F   0  0  0  0  0  0  0  0  0  0  0  0
    3.5981    0.0000    0.0000 R   0  0  0  0  0  0  0  0  0  0  0  0
    4.8971    0.7500    0.0000 F   0  0  0  0  0  0  0  0  0  0  0  0
   -1.2990    5.2990    0.0000 F   0  0  0  0  0  0  0  0  0  0  0  0
    0.0000    4.5490    0.0000 C   0  0  0  0  0  0  0  0  0  0  0  0
   -0.0000    3.0490    0.0000 F   0  0  0  0  0  0  0  0  0  0  0  0
    1.2990    5.2990    0.0000 C   0  0  0  0  0  0  0  0  0  0  0  0
    1.2990    6.7990    0.0000 F   0  0  0  0  0  0  0  0  0  0  0  0
    2.5981    4.5490    0.0000 O   0  0  0  0  0  0  0  0  0  0  0  0
    3.8971    5.2990    0.0000 C   0  0  0  0  0  0  0  0  0  0  0  0
    3.1471    6.5981    0.0000 F   0  0  0  0  0  0  0  0  0  0  0  0
    4.6471    4.0000    0.0000 F   0  0  0  0  0  0  0  0  0  0  0  0
    5.1962    6.0490    0.0000 C   0  0  0  0  0  0  0  0  0  0  0  0
    4.4462    7.3481    0.0000 F   0  0  0  0  0  0  0  0  0  0  0  0
    5.9462    4.7500    0.0000 F   0  0  0  0  0  0  0  0  0  0  0  0
    6.4952    6.7990    0.0000 C   0  0  0  0  0  0  0  0  0  0  0  0
    7.2452    5.5000    0.0000 F   0  0  0  0  0  0  0  0  0  0  0  0
    5.7452    8.0981    0.0000 F   0  0  0  0  0  0  0  0  0  0  0  0
    7.7942    7.5490    0.0000 O   0  0  0  0  0  0  0  0  0  0  0  0
    7.7942    9.0490    0.0000 C   0  0  0  0  0  0  0  0  0  0  0  0
    6.2942    9.0490    0.0000 F   0  0  0  0  0  0  0  0  0  0  0  0
    9.2942    9.0490    0.0000 F   0  0  0  0  0  0  0  0  0  0  0  0
    7.7942   10.5490    0.0000 C   0  0  0  0  0  0  0  0  0  0  0  0
    7.7942   12.0490    0.0000 F   0  0  0  0  0  0  0  0  0  0  0  0
    6.2942   10.5490    0.0000 F   0  0  0  0  0  0  0  0  0  0  0  0
    9.2942   10.5490    0.0000 F   0  0  0  0  0  0  0  0  0  0  0  0
  1  2  1  0
  2  3  1  0
  2  4  1  0
  2  5  1  0
  6  7  1  0
  8  9  1  0
  9 10  1  0
  9 11  1  0
 11 12  1  0
 11 13  1  0
 13 14  1  0
 14 15  1  0
 14 16  1  0
 14 17  1  0
 17 18  1  0
 17 19  1  0
 17 20  1  0
 20 21  1  0
 20 22  1  0
 20 23  1  0
 23 24  1  0
 24 25  1  0
 24 26  1  0
 24 27  1  0
 27 28  1  0
 27 29  1  0
 27 30  1  0
M  END
$$$$

     RDKit          2D

 60 52  0  0  0  0  0  0  0  0999 V2000
    0.0000    0.0000    0.0000 R   0  0  0  0  0  0  0  0  0  0  0  0
    1.0000    0.0000    0.0000 R   0  0  0  0  0  0  0  0  0  0  0  0
    0.0000    1.0000    0.0000 R   0  0  0  0  0  0  0  0  0  0  0  0
    2.0000    0.0000    0.0000 R   0  0  0  0  0  0  0  0  0  0  0  0
    0.0000    2.0000    0.0000 R   0  0  0  0  0  0  0  0  0  0  0  0
    3.0000    0.0000    0.0000 R   0  0  0  0  0  0  0  0  0  0  0  0
    0.0000    3.5490    0.0000 R   0  0  0  0  0  0  0  0  0  0  0  0
    1.2990    4.2990    0.0000 C   0  0  0  0  0  0  0  0  0  0  0  0
    2.5981    5.0490    0.0000 R   0  0  0  0  0  0  0  0  0  0  0  0
    2.0490    3.0000    0.0000 R   0  0  0  0  0  0  0  0  0  0  0  0
    0.5490    5.5981    0.0000 C   0  0  0  0  0  0  0  0  0  0  0  0
   -0.7500    4.8481    0.0000 R   0  0  0  0  0  0  0  0  0  0  0  0
    1.8481    6.3481    0.0000 R   0  0  0  0  0  0  0  0  0  0  0  0
   -0.2010    6.8971    0.0000 C   0  0  0  0  0  0  0  0  0  0  0  0
    1.0981    7.6471    0.0000 R   0  0  0  0  0  0  0  0  0  0  0  0
   -1.5000    6.1471    0.0000 R   0  0  0  0  0  0  0  0  0  0  0  0
   -0.9510    8.1962    0.0000 C   0  0  0  0  0  0  0  0  0  0  0  0
   -2.2500    7.4462    0.0000 R   0  0  0  0  0  0  0  0  0  0  0  0
    0.3481    8.9462    0.0000 R   0  0  0  0  0  0  0  0  0  0  0  0
   -1.7010    9.4952    0.0000 C   0  0  0  0  0  0  0  0  0  0  0  0
   -0.4019   10.2452    0.0000 R   0  0  0  0  0  0  0  0  0  0  0  0
   -3.0000    8.7452    0.0000 R   0  0  0  0  0  0  0  0  0  0  0  0
   -2.4510   10.7942    0.0000 C   0  0  0  0  0  0  0  0  0  0  0  0
   -3.7500   10.0442    0.0000 R   0  0  0  0  0  0  0  0  0  0  0  0
   -1.1519   11.5442    0.0000 R   0  0  0  0  0  0  0  0  0  0  0  0
   -3.2010   12.0933    0.0000 C   0  0  0  0  0  0  0  0  0  0  0  0
   -1.9019   12.8433    0.0000 R   0  0  0  0  0  0  0  0  0  0  0  0
   -4.5000   11.3433    0.0000 R   0  0  0  0  0  0  0  0  0  0  0  0
   -3.9510   13.3923    0.0000 C   0  0  0  0  0  0  0  0  0  0  0  0
   -5.2500   12.6423    0.0000 R   0  0  0  0  0  0  0  0  0  0  0  0
   -2.6519   14.1423    0.0000 R   0  0  0  0  0  0  0  0  0  0  0  0
   -4.7010   14.6913    0.0000 C   0  0  0  0  0  0  0  0  0  0  0  0
   -3.4019   15.4413    0.0000 R   0  0  0  0  0  0  0  0  0  0  0  0
   -6.0000   13.9413    0.0000 R   0  0  0  0  0  0  0  0  0  0  0  0
   -5.4510   15.9904    0.0000 O   0  0  0  0  0  0  0  0  0  0  0  0
   -4.7010   17.2894    0.0000 C   0  0  0  0  0  0  0  0  0  0  0  0
   -5.4510   18.5885    0.0000 C   0  0  0  0  0  0  0  0  0  0  0  0
   -4.1519   19.3385    0.0000 F   0  0  0  0  0  0  0  0  0  0  0  0
   -6.7500   17.8385    0.0000 F   0  0  0  0  0  0  0  0  0  0  0  0
   -6.2010   19.8875    0.0000 C   0  0  0  0  0  0  0  0  0  0  0  0
   -7.5000   19.1375    0.0000 F   0  0  0  0  0  0  0  0  0  0  0  0
   -4.9019   20.6375    0.0000 F   0  0  0  0  0  0  0  0  0  0  0  0
   -6.9510   21.1865    0.0000 C   0  0  0  0  0  0  0  0  0  0  0  0
   -5.6519   21.9365    0.0000 F   0  0  0  0  0  0  0  0  0  0  0  0
   -8.2500   20.4365    0.0000 F   0  0  0  0  0  0  0  0  0  0  0  0
   -7.7010   22.4856    0.0000 C   0  0  0  0  0  0  0  0  0  0  0  0
   -9.0000   21.7356    0.0000 F   0  0  0  0  0  0  0  0  0  0  0  0
   -6.4019   23.2356    0.0000 F   0  0  0  0  0  0  0  0  0  0  0  0
   -8.4510   23.7846    0.0000 C   0  0  0  0  0  0  0  0  0  0  0  0
   -7.1519   24.5346    0.0000 F   0  0  0  0  0  0  0  0  0  0  0  0
   -9.7500   23.0346    0.0000 F   0  0  0  0  0  0  0  0  0  0  0  0
   -9.2010   25.0836    0.0000 C   0  0  0  0  0  0  0  0  0  0  0  0
  -10.5000   24.3336    0.0000 F   0  0  0  0  0  0  0  0  0  0  0  0
   -7.9019   25.8336    0.0000 F   0  0  0  0  0  0  0  0  0  0  0  0
   -9.9510   26.3827    0.0000 C   0  0  0  0  0  0  0  0  0  0  0  0
  -10.7010   27.6817    0.0000 F   0  0  0  0  0  0  0  0  0  0  0  0
   -8.6519   27.1327    0.0000 F   0  0  0  0  0  0  0  0  0  0  0  0
  -11.2500   25.6327    0.0000 F   0  0  0  0  0  0  0  0  0  0  0  0
    4.0000    0.0000    0.0000 R   0  0  0  0  0  0  0  0  0  0  0  0
    5.2990    0.7500    0.0000 F   0  0  0  0  0  0  0  0  0  0  0  0
  7  8  1  0
  8  9  1  0
  8 10  1  0
  8 11  1  0
 11 12  1  0
 11 13  1  0
 11 14  1  0
 14 15  1  0
 14 16  1  0
 14 17  1  0
 17 18  1  0
 17 19  1  0
 17 20  1  0
 20 21  1  0
 20 22  1  0
 20 23  1  0
 23 24  1  0
 23 25  1  0
 23 26  1  0
 26 27  1  0
 26 28  1  0
 26 29  1  0
 29 30  1  0
 29 31  1  0
 29 32  1  0
 32 33  1  0
 32 34  1  0
 32 35  1  0
 35 36  1  0
 36 37  1  0
 37 38  1  0
 37 39  1  0
 37 40  1  0
 40 41  1  0
 40 42  1  0
 40 43  1  0
 43 44  1  0
 43 45  1  0
 43 46  1  0
 46 47  1  0
 46 48  1  0
 46 49  1  0
 49 50  1  0
 49 51  1  0
 49 52  1  0
 52 53  1  0
 52 54  1  0
 52 55  1  0
 55 56  1  0
 55 57  1  0
 55 58  1  0
 59 60  1  0
M  END
$$$$

     RDKit          2D

 17 16  0  0  0  0  0  0  0  0999 V2000
   -1.8481   -1.2990    0.0000 O   0  0  0  0  0  0  0  0  0  0  0  0
   -2.5981    0.0000    0.0000 P   0  0  0  0  0  0  0  0  0  0  0  0
   -3.3481    1.2990    0.0000 O   0  0  0  0  0  0  0  0  0  0  0  0
   -1.2990    0.7500    0.0000 O   0  0  0  0  0  0  0  0  0  0  0  0
    0.0000    0.0000    0.0000 C   0  0  0  0  0  0  0  0  0  0  0  0
    1.2990    0.7500    0.0000 C   0  0  0  0  0  0  0  0  0  0  0  0
    2.5981   -0.0000    0.0000 C   0  0  0  0  0  0  0  0  0  0  0  0
    3.8971   -0.7500    0.0000 F   0  0  0  0  0  0  0  0  0  0  0  0
    3.3481    1.2990    0.0000 F   0  0  0  0  0  0  0  0  0  0  0  0
    1.8481   -1.2990    0.0000 F   0  0  0  0  0  0  0  0  0  0  0  0
   -3.8971   -0.7500    0.0000 O   0  0  0  0  0  0  0  0  0  0  0  0
   -3.8971   -2.2500    0.0000 C   0  0  0  0  0  0  0  0  0  0  0  0
   -5.1962   -3.0000    0.0000 C   0  0  0  0  0  0  0  0  0  0  0  0
   -5.1962   -4.5000    0.0000 C   0  0  0  0  0  0  0  0  0  0  0  0
   -5.1962   -6.0000    0.0000 F   0  0  0  0  0  0  0  0  0  0  0  0
   -6.6962   -4.5000    0.0000 F   0  0  0  0  0  0  0  0  0  0  0  0
   -3.6962   -4.5000    0.0000 F   0  0  0  0  0  0  0  0  0  0  0  0
  1  2  2  0
  2  3  1  0
  2  4  1  0
  4  5  1  0
  5  6  1  0
  6  7  1  0
  7  8  1  0
  7  9  1  0
  7 10  1  0
  2 11  1  0
 11 12  1  0
 12 13  1  0
 13 14  1  0
 14 15  1  0
 14 16  1  0
 14 17  1  0
M  END
$$$$

     RDKit          2D

 12 10  0  0  0  0  0  0  0  0999 V2000
   -3.3481    1.2990    0.0000 O   0  0  0  0  0  0  0  0  0  0  0  0
   -2.5981    0.0000    0.0000 P   0  0  0  0  0  0  0  0  0  0  0  0
   -1.8481   -1.2990    0.0000 O   0  0  0  0  0  0  0  0  0  0  0  0
   -3.8971   -0.7500    0.0000 O   0  0  0  0  0  0  0  0  0  0  0  0
   -1.2990    0.7500    0.0000 O   0  0  0  0  0  0  0  0  0  0  0  0
    0.0000    0.0000    0.0000 C   0  0  0  0  0  0  0  0  0  0  0  0
    1.2990    0.7500    0.0000 C   0  0  0  0  0  0  0  0  0  0  0  0
    2.5981   -0.0000    0.0000 C   0  0  0  0  0  0  0  0  0  0  0  0
    3.8971   -0.7500    0.0000 F   0  0  0  0  0  0  0  0  0  0  0  0
    3.3481    1.2990    0.0000 F   0  0  0  0  0  0  0  0  0  0  0  0
    1.8481   -1.2990    0.0000 F   0  0  0  0  0  0  0  0  0  0  0  0
    0.0000    2.2990    0.0000 N   0  0  0  0  0  0  0  0  0  0  0  0
  1  2  2  0
  2  3  1  0
  2  4  1  0
  2  5  1  0
  5  6  1  0
  6  7  1  0
  7  8  1  0
  8  9  1  0
  8 10  1  0
  8 11  1  0
M  CHG  2   3  -1  12   1
M  END
$$$$

     RDKit          2D

 43 43  0  0  0  0  0  0  0  0999 V2000
   21.5260   11.6913    0.0000 C   0  0  0  0  0  0  0  0  0  0  0  0
   20.7760   10.3923    0.0000 C   0  0  0  0  0  0  0  0  0  0  0  0
   19.2760   10.3923    0.0000 C   0  0  0  0  0  0  0  0  0  0  0  0
   18.5260    9.0933    0.0000 C   0  0  0  0  0  0  0  0  0  0  0  0
   17.0260    9.0933    0.0000 C   0  0  0  0  0  0  0  0  0  0  0  0
   16.2760    7.7942    0.0000 C   0  0  0  0  0  0  0  0  0  0  0  0
   14.7760    7.7942    0.0000 C   0  0  0  0  0  0  0  0  0  0  0  0
   14.0260    6.4952    0.0000 C   0  0  0  0  0  0  0  0  0  0  0  0
   12.5260    6.4952    0.0000 C   0  0  0  0  0  0  0  0  0  0  0  0
   11.7760    5.1962    0.0000 C   0  0  0  0  0  0  0  0  0  0  0  0
   10.2760    5.1962    0.0000 C   0  0  0  0  0  0  0  0  0  0  0  0
    9.5260    3.8971    0.0000 C   0  0  0  0  0  0  0  0  0  0  0  0
    8.0260    3.8971    0.0000 C   0  0  0  0  0  0  0  0  0  0  0  0
    7.2760    2.5981    0.0000 C   0  0  0  0  0  0  0  0  0  0  0  0
    5.7760    2.5981    0.0000 C   0  0  0  0  0  0  0  0  0  0  0  0
    5.0260    1.2990    0.0000 C   0  0  0  0  0  0  0  0  0  0  0  0
    3.5260    1.2990    0.0000 C   0  0  0  0  0  0  0  0  0  0  0  0
    2.7760    0.0000    0.0000 C   0  0  0  0  0  0  0  0  0  0  0  0
    1.2760    0.0000    0.0000 N   0  0  0  0  0  0  0  0  0  0  0  0
    0.3943    1.2135    0.0000 C   0  0  0  0  0  0  0  0  0  0  0  0
   -1.0323    0.7500    0.0000 C   0  0  0  0  0  0  0  0  0  0  0  0
   -2.2458    1.6317    0.0000 C   0  0  0  0  0  0  0  0  0  0  0  0
   -2.0890    3.1235    0.0000 N   0  0  0  0  0  0  0  0  0  0  0  0
   -3.3025    4.0051    0.0000 C   0  0  0  0  0  0  0  0  0  0  0  0
   -0.7187    3.7336    0.0000 S   0  0  0  0  0  0  0  0  0  0  0  0
   -0.1086    2.3632    0.0000 O   0  0  0  0  0  0  0  0  0  0  0  0
   -1.1293    4.4169    0.0000 O   0  0  0  0  0  0  0  0  0  0  0  0
    0.6516    4.3437    0.0000 C   0  0  0  0  0  0  0  0  0  0  0  0
    1.2617    2.9734    0.0000 F   0  0  0  0  0  0  0  0  0  0  0  0
    2.0219    4.9538    0.0000 F   0  0  0  0  0  0  0  0  0  0  0  0
    0.0415    5.7140    0.0000 C   0  0  0  0  0  0  0  0  0  0  0  0
    1.4118    6.3241    0.0000 F   0  0  0  0  0  0  0  0  0  0  0  0
   -0.8055    5.4550    0.0000 F   0  0  0  0  0  0  0  0  0  0  0  0
   -0.5686    7.0843    0.0000 C   0  0  0  0  0  0  0  0  0  0  0  0
   -1.9389    6.4742    0.0000 F   0  0  0  0  0  0  0  0  0  0  0  0
    0.8017    7.6944    0.0000 F   0  0  0  0  0  0  0  0  0  0  0  0
   -1.1787    8.4546    0.0000 C   0  0  0  0  0  0  0  0  0  0  0  0
   -1.7888    9.8249    0.0000 F   0  0  0  0  0  0  0  0  0  0  0  0
   -2.5490    7.8445    0.0000 F   0  0  0  0  0  0  0  0  0  0  0  0
    0.1916    9.0647    0.0000 F   0  0  0  0  0  0  0  0  0  0  0  0
   -1.0323   -0.7500    0.0000 O   0  0  0  0  0  0  0  0  0  0  0  0
    0.3943   -1.2135    0.0000 C   0  0  0  0  0  0  0  0  0  0  0  0
    0.8578   -2.6401    0.0000 O   0  0  0  0  0  0  0  0  0  0  0  0
  1  2  1  0
  2  3  1  0
  3  4  1  0
  4  5  1  0
  5  6  1  0
  6  7  1  0
  7  8  1  0
  8  9  1  0
  9 10  1  0
 10 11  1  0
 11 12  1  0
 12 13  1  0
 13 14  1  0
 14 15  1  0
 15 16  1  0
 16 17  1  0
 17 18  1  0
 18 19  1  0
 19 20  1  0
 20 21  1  0
 21 22  1  0
 22 23  1  0
 23 24  1  0
 23 25  1  0
 25 26  2  0
 25 27  2  0
 25 28  1  0
 28 29  1  0
 28 30  1  0
 28 31  1  0
 31 32  1  0
 31 33  1  0
 31 34  1  0
 34 35  1  0
 34 36  1  0
 34 37  1  0
 37 38  1  0
 37 39  1  0
 37 40  1  0
 21 41  1  0
 41 42  1  0
 42 43  2  0
 42 19  1  0
M  END
$$$$

     RDKit          2D

  7  6  0  0  0  0  0  0  0  0999 V2000
   -1.2990    0.7500    0.0000 O   0  0  0  0  0  0  0  0  0  0  0  0
    0.0000    0.0000    0.0000 C   0  0  0  0  0  0  0  0  0  0  0  0
    1.2990    0.7500    0.0000 C   0  0  0  0  0  0  0  0  0  0  0  0
    2.5981   -0.0000    0.0000 C   0  0  0  0  0  0  0  0  0  0  0  0
    3.8971   -0.7500    0.0000 F   0  0  0  0  0  0  0  0  0  0  0  0
    3.3481    1.2990    0.0000 F   0  0  0  0  0  0  0  0  0  0  0  0
    1.8481   -1.2990    0.0000 F   0  0  0  0  0  0  0  0  0  0  0  0
  1  2  1  0
  2  3  1  0
  3  4  1  0
  4  5  1  0
  4  6  1  0
  4  7  1  0
M  END
$$$$

     RDKit          2D

 17 16  0  0  0  0  0  0  0  0999 V2000
    0.0000    0.0000    0.0000 C   0  0  0  0  0  0  0  0  0  0  0  0
    1.2990    0.7500    0.0000 O   0  0  0  0  0  0  0  0  0  0  0  0
    2.5981   -0.0000    0.0000 C   0  0  0  0  0  0  0  0  0  0  0  0
    3.8971    0.7500    0.0000 C   0  0  0  0  0  0  0  0  0  0  0  0
    5.1962   -0.0000    0.0000 O   0  0  0  0  0  0  0  0  0  0  0  0
    6.4952    0.7500    0.0000 C   0  0  0  0  0  0  0  0  0  0  0  0
    7.7942   -0.0000    0.0000 C   0  0  0  0  0  0  0  0  0  0  0  0
    9.0933    0.7500    0.0000 C   0  0  0  0  0  0  0  0  0  0  0  0
    9.0933    2.2500    0.0000 O   0  0  0  0  0  0  0  0  0  0  0  0
   10.3923   -0.0000    0.0000 C   0  0  0  0  0  0  0  0  0  0  0  0
   11.6913    0.7500    0.0000 S   0  0  0  0  0  0  0  0  0  0  0  0
   12.9904   -0.0000    0.0000 C   0  0  0  0  0  0  0  0  0  0  0  0
   14.2894    0.7500    0.0000 C   0  0  0  0  0  0  0  0  0  0  0  0
   15.5885   -0.0000    0.0000 C   0  0  0  0  0  0  0  0  0  0  0  0
   16.8875   -0.7500    0.0000 F   0  0  0  0  0  0  0  0  0  0  0  0
   16.3385    1.2990    0.0000 F   0  0  0  0  0  0  0  0  0  0  0  0
   14.8385   -1.2990    0.0000 F   0  0  0  0  0  0  0  0  0  0  0  0
  1  2  1  0
  2  3  1  0
  3  4  1  0
  4  5  1  0
  5  6  1  0
  6  7  1  0
  7  8  1  0
  8  9  1  0
  8 10  1  0
 10 11  1  0
 11 12  1  0
 12 13  1  0
 13 14  1  0
 14 15  1  0
 14 16  1  0
 14 17  1  0
M  END
$$$$

     RDKit          2D

 25 24  0  0  0  0  0  0  0  0999 V2000
   -1.2990    2.2500    0.0000 O   0  0  0  0  0  0  0  0  0  0  0  0
   -1.2990    0.7500    0.0000 C   0  0  0  0  0  0  0  0  0  0  0  0
   -2.5981    0.0000    0.0000 O   0  0  0  0  0  0  0  0  0  0  0  0
    0.0000    0.0000    0.0000 C   0  0  0  0  0  0  0  0  0  0  0  0
    1.2990    0.7500    0.0000 C   0  0  0  0  0  0  0  0  0  0  0  0
    0.5490    2.0490    0.0000 O   0  0  0  0  0  0  0  0  0  0  0  0
    2.5981    1.5000    0.0000 C   0  0  0  0  0  0  0  0  0  0  0  0
    2.5981    3.0000    0.0000 C   0  0  0  0  0  0  0  0  0  0  0  0
    1.2990    3.7500    0.0000 O   0  0  0  0  0  0  0  0  0  0  0  0
    3.8971    3.7500    0.0000 O   0  0  0  0  0  0  0  0  0  0  0  0
    3.8971    5.2500    0.0000 C   0  0  0  0  0  0  0  0  0  0  0  0
    5.1962    6.0000    0.0000 C   0  0  0  0  0  0  0  0  0  0  0  0
    5.1962    7.5000    0.0000 C   0  0  0  0  0  0  0  0  0  0  0  0
    5.1962    9.0000    0.0000 F   0  0  0  0  0  0  0  0  0  0  0  0
    6.6962    7.5000    0.0000 F   0  0  0  0  0  0  0  0  0  0  0  0
    3.6962    7.5000    0.0000 F   0  0  0  0  0  0  0  0  0  0  0  0
    2.0490   -0.5490    0.0000 C   0  0  0  0  0  0  0  0  0  0  0  0
    1.2990   -1.8481    0.0000 O   0  0  0  0  0  0  0  0  0  0  0  0
    3.5490   -0.5490    0.0000 O   0  0  0  0  0  0  0  0  0  0  0  0
    4.2990   -1.8481    0.0000 C   0  0  0  0  0  0  0  0  0  0  0  0
    5.7990   -1.8481    0.0000 C   0  0  0  0  0  0  0  0  0  0  0  0
    6.5490   -3.1471    0.0000 C   0  0  0  0  0  0  0  0  0  0  0  0
    7.2990   -4.4462    0.0000 F   0  0  0  0  0  0  0  0  0  0  0  0
    7.8481   -2.3971    0.0000 F   0  0  0  0  0  0  0  0  0  0  0  0
    5.2500   -3.8971    0.0000 F   0  0  0  0  0  0  0  0  0  0  0  0
  1  2  2  0
  2  3  1  0
  2  4  1  0
  4  5  1  0
  5  6  1  0
  5  7  1  0
  7  8  1  0
  8  9  2  0
  8 10  1  0
 10 11  1  0
 11 12  1  0
 12 13  1  0
 13 14  1  0
 13 15  1  0
 13 16  1  0
  5 17  1  0
 17 18  2  0
 17 19  1  0
 19 20  1  0
 20 21  1  0
 21 22  1  0
 22 23  1  0
 22 24  1  0
 22 25  1  0
M  END
$$$$

     RDKit          2D

 25 22  0  0  0  0  0  0  0  0999 V2000
   -3.3481    1.2990    0.0000 O   0  0  0  0  0  0  0  0  0  0  0  0
   -2.5981    0.0000    0.0000 P   0  0  0  0  0  0  0  0  0  0  0  0
   -1.8481   -1.2990    0.0000 O   0  0  0  0  0  0  0  0  0  0  0  0
   -3.8971   -0.7500    0.0000 O   0  0  0  0  0  0  0  0  0  0  0  0
   -1.2990    0.7500    0.0000 O   0  0  0  0  0  0  0  0  0  0  0  0
    0.0000    0.0000    0.0000 C   0  0  0  0  0  0  0  0  0  0  0  0
    1.2990    0.7500    0.0000 C   0  0  0  0  0  0  0  0  0  0  0  0
    2.5981   -0.0000    0.0000 C   0  0  0  0  0  0  0  0  0  0  0  0
    3.8971   -0.7500    0.0000 F   0  0  0  0  0  0  0  0  0  0  0  0
    3.3481    1.2990    0.0000 F   0  0  0  0  0  0  0  0  0  0  0  0
    1.8481   -1.2990    0.0000 F   0  0  0  0  0  0  0  0  0  0  0  0
   -1.2990    3.0490    0.0000 O   0  0  0  0  0  0  0  0  0  0  0  0
    0.0000    2.2990    0.0000 C   0  0  0  0  0  0  0  0  0  0  0  0
    1.2990    3.0490    0.0000 C   0  0  0  0  0  0  0  0  0  0  0  0
    2.5981    2.2990    0.0000 N   0  0  0  0  0  0  0  0  0  0  0  0
    3.8971    3.0490    0.0000 C   0  0  0  0  0  0  0  0  0  0  0  0
    5.1962    2.2990    0.0000 C   0  0  0  0  0  0  0  0  0  0  0  0
    6.4952    3.0490    0.0000 O   0  0  0  0  0  0  0  0  0  0  0  0
   -1.2990    4.7990    0.0000 O   0  0  0  0  0  0  0  0  0  0  0  0
    0.0000    4.0490    0.0000 C   0  0  0  0  0  0  0  0  0  0  0  0
    1.2990    4.7990    0.0000 C   0  0  0  0  0  0  0  0  0  0  0  0
    2.5981    4.0490    0.0000 N   0  0  0  0  0  0  0  0  0  0  0  0
    3.8971    4.7990    0.0000 C   0  0  0  0  0  0  0  0  0  0  0  0
    5.1962    4.0490    0.0000 C   0  0  0  0  0  0  0  0  0  0  0  0
    6.4952    4.7990    0.0000 O   0  0  0  0  0  0  0  0  0  0  0  0
  1  2  2  0
  2  3  1  0
  2  4  1  0
  2  5  1  0
  5  6  1  0
  6  7  1  0
  7  8  1  0
  8  9  1  0
  8 10  1  0
  8 11  1  0
 12 13  1  0
 13 14  1  0
 14 15  1  0
 15 16  1  0
 16 17  1  0
 17 18  1  0
 19 20  1  0
 20 21  1  0
 21 22  1  0
 22 23  1  0
 23 24  1  0
 24 25  1  0
M  END
$$$$

     RDKit          2D

 29 28  0  0  0  0  0  0  0  0999 V2000
    0.0000    0.0000    0.0000 C   0  0  0  0  0  0  0  0  0  0  0  0
    1.2990    0.7500    0.0000 C   0  0  0  0  0  0  0  0  0  0  0  0
    2.5981   -0.0000    0.0000 N   0  0  0  0  0  0  0  0  0  0  0  0
    3.8971    0.7500    0.0000 C   0  0  0  0  0  0  0  0  0  0  0  0
    5.1962   -0.0000    0.0000 C   0  0  0  0  0  0  0  0  0  0  0  0
    6.4952    0.7500    0.0000 O   0  0  0  0  0  0  0  0  0  0  0  0
    7.7942   -0.0000    0.0000 C   0  0  0  0  0  0  0  0  0  0  0  0
    9.0933    0.7500    0.0000 C   0  0  0  0  0  0  0  0  0  0  0  0
   10.3923   -0.0000    0.0000 C   0  0  0  0  0  0  0  0  0  0  0  0
   11.6913    0.7500    0.0000 O   0  0  0  0  0  0  0  0  0  0  0  0
    2.5981   -1.5000    0.0000 S   0  0  0  0  0  0  0  0  0  0  0  0
    1.8069   -1.4028    0.0000 O   0  0  0  0  0  0  0  0  0  0  0  0
    4.0981   -1.5000    0.0000 O   0  0  0  0  0  0  0  0  0  0  0  0
    2.5981   -3.0000    0.0000 C   0  0  0  0  0  0  0  0  0  0  0  0
    4.0981   -3.0000    0.0000 F   0  0  0  0  0  0  0  0  0  0  0  0
    2.5981   -4.5000    0.0000 F   0  0  0  0  0  0  0  0  0  0  0  0
    1.0981   -3.0000    0.0000 C   0  0  0  0  0  0  0  0  0  0  0  0
    0.9901   -2.1209    0.0000 F   0  0  0  0  0  0  0  0  0  0  0  0
    1.0981   -4.5000    0.0000 F   0  0  0  0  0  0  0  0  0  0  0  0
   -0.4019   -3.0000    0.0000 C   0  0  0  0  0  0  0  0  0  0  0  0
   -0.4019   -1.5000    0.0000 F   0  0  0  0  0  0  0  0  0  0  0  0
   -0.4019   -4.5000    0.0000 F   0  0  0  0  0  0  0  0  0  0  0  0
   -1.9019   -3.0000    0.0000 C   0  0  0  0  0  0  0  0  0  0  0  0
   -1.9019   -1.5000    0.0000 F   0  0  0  0  0  0  0  0  0  0  0  0
   -1.9019   -4.5000    0.0000 F   0  0  0  0  0  0  0  0  0  0  0  0
   -3.4019   -3.0000    0.0000 C   0  0  0  0  0  0  0  0  0  0  0  0
   -4.9019   -3.0000    0.0000 F   0  0  0  0  0  0  0  0  0  0  0  0
   -3.4019   -4.5000    0.0000 F   0  0  0  0  0  0  0  0  0  0  0  0
   -3.4019   -1.5000    0.0000 F   0  0  0  0  0  0  0  0  0  0  0  0
  1  2  1  0
  2  3  1  0
  3  4  1  0
  4  5  1  0
  5  6  1  0
  6  7  1  0
  7  8  1  0
  8  9  1  0
  9 10  1  0
  3 11  1  0
 11 12  2  0
 11 13  2  0
 11 14  1  0
 14 15  1  0
 14 16  1  0
 14 17  1  0
 17 18  1  0
 17 19  1  0
 17 20  1  0
 20 21  1  0
 20 22  1  0
 20 23  1  0
 23 24  1  0
 23 25  1  0
 23 26  1  0
 26 27  1  0
 26 28  1  0
 26 29  1  0
M  END
$$$$

     RDKit          2D

 31 30  0  0  0  0  0  0  0  0999 V2000
    0.0000    0.0000    0.0000 C   0  0  0  0  0  0  0  0  0  0  0  0
    1.2990    0.7500    0.0000 C   0  0  0  0  0  0  0  0  0  0  0  0
    2.5981   -0.0000    0.0000 N   0  0  0  0  0  0  0  0  0  0  0  0
    3.8971    0.7500    0.0000 C   0  0  0  0  0  0  0  0  0  0  0  0
    5.1962   -0.0000    0.0000 C   0  0  0  0  0  0  0  0  0  0  0  0
    6.4952    0.7500    0.0000 O   0  0  0  0  0  0  0  0  0  0  0  0
    7.7942   -0.0000    0.0000 C   0  0  0  0  0  0  0  0  0  0  0  0
    9.0933    0.7500    0.0000 C   0  0  0  0  0  0  0  0  0  0  0  0
   10.3923   -0.0000    0.0000 O   0  0  0  0  0  0  0  0  0  0  0  0
    2.5981   -1.5000    0.0000 S   0  0  0  0  0  0  0  0  0  0  0  0
    1.8069   -1.4028    0.0000 O   0  0  0  0  0  0  0  0  0  0  0  0
    4.0981   -1.5000    0.0000 O   0  0  0  0  0  0  0  0  0  0  0  0
    2.5981   -3.0000    0.0000 C   0  0  0  0  0  0  0  0  0  0  0  0
    4.0981   -3.0000    0.0000 F   0  0  0  0  0  0  0  0  0  0  0  0
    2.5981   -4.5000    0.0000 F   0  0  0  0  0  0  0  0  0  0  0  0
    1.0981   -3.0000    0.0000 C   0  0  0  0  0  0  0  0  0  0  0  0
    0.9901   -2.1209    0.0000 F   0  0  0  0  0  0  0  0  0  0  0  0
    1.0981   -4.5000    0.0000 F   0  0  0  0  0  0  0  0  0  0  0  0
   -0.4019   -3.0000    0.0000 C   0  0  0  0  0  0  0  0  0  0  0  0
   -0.4019   -1.5000    0.0000 F   0  0  0  0  0  0  0  0  0  0  0  0
   -0.4019   -4.5000    0.0000 F   0  0  0  0  0  0  0  0  0  0  0  0
   -1.9019   -3.0000    0.0000 C   0  0  0  0  0  0  0  0  0  0  0  0
   -1.9019   -1.5000    0.0000 F   0  0  0  0  0  0  0  0  0  0  0  0
   -1.9019   -4.5000    0.0000 F   0  0  0  0  0  0  0  0  0  0  0  0
   -3.4019   -3.0000    0.0000 C   0  0  0  0  0  0  0  0  0  0  0  0
   -3.4019   -4.5000    0.0000 F   0  0  0  0  0  0  0  0  0  0  0  0
   -3.4019   -1.5000    0.0000 F   0  0  0  0  0  0  0  0  0  0  0  0
   -4.9019   -3.0000    0.0000 C   0  0  0  0  0  0  0  0  0  0  0  0
   -6.4019   -3.0000    0.0000 F   0  0  0  0  0  0  0  0  0  0  0  0
   -4.9019   -1.5000    0.0000 F   0  0  0  0  0  0  0  0  0  0  0  0
   -4.9019   -4.5000    0.0000 F   0  0  0  0  0  0  0  0  0  0  0  0
  1  2  1  0
  2  3  1  0
  3  4  1  0
  4  5  1  0
  5  6  1  0
  6  7  1  0
  7  8  1  0
  8  9  1  0
  3 10  1  0
 10 11  2  0
 10 12  2  0
 10 13  1  0
 13 14  1  0
 13 15  1  0
 13 16  1  0
 16 17  1  0
 16 18  1  0
 16 19  1  0
 19 20  1  0
 19 21  1  0
 19 22  1  0
 22 23  1  0
 22 24  1  0
 22 25  1  0
 25 26  1  0
 25 27  1  0
 25 28  1  0
 28 29  1  0
 28 30  1  0
 28 31  1  0
M  END
$$$$

     RDKit          2D

 64 63  0  0  0  0  0  0  0  0999 V2000
    0.0000    0.0000    0.0000 C   0  0  0  0  0  0  0  0  0  0  0  0
    1.2990    0.7500    0.0000 O   0  0  0  0  0  0  0  0  0  0  0  0
    2.5981   -0.0000    0.0000 C   0  0  0  0  0  0  0  0  0  0  0  0
    3.8971    0.7500    0.0000 C   0  0  0  0  0  0  0  0  0  0  0  0
    5.1962   -0.0000    0.0000 O   0  0  0  0  0  0  0  0  0  0  0  0
    6.4952    0.7500    0.0000 C   0  0  0  0  0  0  0  0  0  0  0  0
    7.7942   -0.0000    0.0000 C   0  0  0  0  0  0  0  0  0  0  0  0
    9.0933    0.7500    0.0000 C   0  0  0  0  0  0  0  0  0  0  0  0
   10.3923   -0.0000    0.0000 Si  0  0  0  0  0  4  0  0  0  0  0  0
    9.6423   -1.2990    0.0000 C   0  0  0  0  0  0  0  0  0  0  0  0
   11.1423    1.2990    0.0000 C   0  0  0  0  0  0  0  0  0  0  0  0
   11.6913   -0.7500    0.0000 O   0  0  0  0  0  0  0  0  0  0  0  0
   11.6913   -2.2500    0.0000 Si  0  0  0  0  0  4  0  0  0  0  0  0
   11.6913   -3.7500    0.0000 C   0  0  0  0  0  0  0  0  0  0  0  0
   10.3923   -4.5000    0.0000 C   0  0  0  0  0  0  0  0  0  0  0  0
   10.3923   -6.0000    0.0000 C   0  0  0  0  0  0  0  0  0  0  0  0
    8.8923   -6.0000    0.0000 F   0  0  0  0  0  0  0  0  0  0  0  0
   11.8923   -6.0000    0.0000 F   0  0  0  0  0  0  0  0  0  0  0  0
   10.3923   -7.5000    0.0000 C   0  0  0  0  0  0  0  0  0  0  0  0
    8.8923   -7.5000    0.0000 F   0  0  0  0  0  0  0  0  0  0  0  0
   11.8923   -7.5000    0.0000 F   0  0  0  0  0  0  0  0  0  0  0  0
   10.3923   -9.0000    0.0000 C   0  0  0  0  0  0  0  0  0  0  0  0
   11.8923   -9.0000    0.0000 F   0  0  0  0  0  0  0  0  0  0  0  0
    8.8923   -9.0000    0.0000 F   0  0  0  0  0  0  0  0  0  0  0  0
   10.3923  -10.5000    0.0000 C   0  0  0  0  0  0  0  0  0  0  0  0
    8.8923  -10.5000    0.0000 F   0  0  0  0  0  0  0  0  0  0  0  0
   11.8923  -10.5000    0.0000 F   0  0  0  0  0  0  0  0  0  0  0  0
   10.3923  -12.0000    0.0000 C   0  0  0  0  0  0  0  0  0  0  0  0
   11.8923  -12.0000    0.0000 F   0  0  0  0  0  0  0  0  0  0  0  0
    8.8923  -12.0000    0.0000 F   0  0  0  0  0  0  0  0  0  0  0  0
   10.3923  -13.5000    0.0000 C   0  0  0  0  0  0  0  0  0  0  0  0
    8.8923  -13.5000    0.0000 F   0  0  0  0  0  0  0  0  0  0  0  0
   11.8923  -13.5000    0.0000 F   0  0  0  0  0  0  0  0  0  0  0  0
   10.3923  -15.0000    0.0000 C   0  0  0  0  0  0  0  0  0  0  0  0
   11.8923  -15.0000    0.0000 F   0  0  0  0  0  0  0  0  0  0  0  0
    8.8923  -15.0000    0.0000 F   0  0  0  0  0  0  0  0  0  0  0  0
   10.3923  -16.5000    0.0000 C   0  0  0  0  0  0  0  0  0  0  0  0
   10.3923  -18.0000    0.0000 F   0  0  0  0  0  0  0  0  0  0  0  0
    8.8923  -16.5000    0.0000 F   0  0  0  0  0  0  0  0  0  0  0  0
   11.8923  -16.5000    0.0000 F   0  0  0  0  0  0  0  0  0  0  0  0
   10.1913   -2.2500    0.0000 O   0  0  0  0  0  0  0  0  0  0  0  0
    9.4413   -3.5490    0.0000 Si  0  0  0  0  0  4  0  0  0  0  0  0
    8.1423   -2.7990    0.0000 C   0  0  0  0  0  0  0  0  0  0  0  0
   10.0147   -4.1028    0.0000 C   0  0  0  0  0  0  0  0  0  0  0  0
    8.6913   -4.8481    0.0000 C   0  0  0  0  0  0  0  0  0  0  0  0
    7.1913   -4.8481    0.0000 C   0  0  0  0  0  0  0  0  0  0  0  0
    6.4413   -6.1471    0.0000 C   0  0  0  0  0  0  0  0  0  0  0  0
    4.9413   -6.1471    0.0000 O   0  0  0  0  0  0  0  0  0  0  0  0
    4.1913   -7.4462    0.0000 C   0  0  0  0  0  0  0  0  0  0  0  0
    2.6913   -7.4462    0.0000 C   0  0  0  0  0  0  0  0  0  0  0  0
    1.9413   -8.7452    0.0000 O   0  0  0  0  0  0  0  0  0  0  0  0
    0.4413   -8.7452    0.0000 C   0  0  0  0  0  0  0  0  0  0  0  0
   13.1913   -2.2500    0.0000 O   0  0  0  0  0  0  0  0  0  0  0  0
   13.9413   -3.5490    0.0000 Si  0  0  0  0  0  4  0  0  0  0  0  0
   15.2404   -2.7990    0.0000 C   0  0  0  0  0  0  0  0  0  0  0  0
   12.6423   -4.2990    0.0000 C   0  0  0  0  0  0  0  0  0  0  0  0
   14.6913   -4.8481    0.0000 C   0  0  0  0  0  0  0  0  0  0  0  0
   13.9413   -6.1471    0.0000 C   0  0  0  0  0  0  0  0  0  0  0  0
   14.6913   -7.4462    0.0000 C   0  0  0  0  0  0  0  0  0  0  0  0
   13.9413   -8.7452    0.0000 O   0  0  0  0  0  0  0  0  0  0  0  0
   14.6913  -10.0442    0.0000 C   0  0  0  0  0  0  0  0  0  0  0  0
   13.9413  -11.3433    0.0000 C   0  0  0  0  0  0  0  0  0  0  0  0
   14.6913  -12.6423    0.0000 O   0  0  0  0  0  0  0  0  0  0  0  0
   13.9413  -13.9413    0.0000 C   0  0  0  0  0  0  0  0  0  0  0  0
  1  2  1  0
  2  3  1  0
  3  4  1  0
  4  5  1  0
  5  6  1  0
  6  7  1  0
  7  8  1  0
  8  9  1  0
  9 10  1  0
  9 11  1  0
  9 12  1  0
 12 13  1  0
 13 14  1  0
 14 15  1  0
 15 16  1  0
 16 17  1  0
 16 18  1  0
 16 19  1  0
 19 20  1  0
 19 21  1  0
 19 22  1  0
 22 23  1  0
 22 24  1  0
 22 25  1  0
 25 26  1  0
 25 27  1  0
 25 28  1  0
 28 29  1  0
 28 30  1  0
 28 31  1  0
 31 32  1  0
 31 33  1  0
 31 34  1  0
 34 35  1  0
 34 36  1  0
 34 37  1  0
 37 38  1  0
 37 39  1  0
 37 40  1  0
 13 41  1  0
 41 42  1  0
 42 43  1  0
 42 44  1  0
 42 45  1  0
 45 46  1  0
 46 47  1  0
 47 48  1  0
 48 49  1  0
 49 50  1  0
 50 51  1  0
 51 52  1  0
 13 53  1  0
 53 54  1  0
 54 55  1  0
 54 56  1  0
 54 57  1  0
 57 58  1  0
 58 59  1  0
 59 60  1  0
 60 61  1  0
 61 62  1  0
 62 63  1  0
 63 64  1  0
M  END
$$$$

     RDKit          2D

 32 31  0  0  0  0  0  0  0  0999 V2000
    6.2010   -8.5442    0.0000 R   0  0  0  0  0  0  0  0  0  0  0  0
    7.5000   -7.7942    0.0000 C   0  0  0  0  0  0  0  0  0  0  0  0
    8.7990   -7.0442    0.0000 R   0  0  0  0  0  0  0  0  0  0  0  0
    8.2500   -9.0933    0.0000 R   0  0  0  0  0  0  0  0  0  0  0  0
    6.7500   -6.4952    0.0000 C   0  0  0  0  0  0  0  0  0  0  0  0
    8.0490   -5.7452    0.0000 R   0  0  0  0  0  0  0  0  0  0  0  0
    5.4510   -7.2452    0.0000 R   0  0  0  0  0  0  0  0  0  0  0  0
    6.0000   -5.1962    0.0000 C   0  0  0  0  0  0  0  0  0  0  0  0
    4.7010   -5.9462    0.0000 R   0  0  0  0  0  0  0  0  0  0  0  0
    7.2990   -4.4462    0.0000 R   0  0  0  0  0  0  0  0  0  0  0  0
    5.2500   -3.8971    0.0000 C   0  0  0  0  0  0  0  0  0  0  0  0
    6.5490   -3.1471    0.0000 R   0  0  0  0  0  0  0  0  0  0  0  0
    3.9510   -4.6471    0.0000 R   0  0  0  0  0  0  0  0  0  0  0  0
    4.5000   -2.5981    0.0000 C   0  0  0  0  0  0  0  0  0  0  0  0
    3.2010   -3.3481    0.0000 R   0  0  0  0  0  0  0  0  0  0  0  0
    5.7990   -1.8481    0.0000 R   0  0  0  0  0  0  0  0  0  0  0  0
    3.7500   -1.2990    0.0000 C   0  0  0  0  0  0  0  0  0  0  0  0
    5.0490   -0.5490    0.0000 R   0  0  0  0  0  0  0  0  0  0  0  0
    2.4510   -2.0490    0.0000 R   0  0  0  0  0  0  0  0  0  0  0  0
    3.0000    0.0000    0.0000 O   0  0  0  0  0  0  0  0  0  0  0  0
    1.5000    0.0000    0.0000 C   0  0  0  0  0  0  0  0  0  0  0  0
    0.7500   -1.2990    0.0000 C   0  0  0  0  0  0  0  0  0  0  0  0
   -0.7500   -1.2990    0.0000 C   0  0  0  0  0  0  0  0  0  0  0  0
   -1.5000    0.0000    0.0000 C   0  0  0  0  0  0  0  0  0  0  0  0
   -3.0000    0.0000    0.0000 S   0  0  0  0  0  0  0  0  0  0  0  0
   -4.5000    0.0000    0.0000 O   0  0  0  0  0  0  0  0  0  0  0  0
   -3.0000    1.5000    0.0000 O   0  0  0  0  0  0  0  0  0  0  0  0
   -3.0000   -1.5000    0.0000 Cl  0  0  0  0  0  0  0  0  0  0  0  0
   -0.7500    1.2990    0.0000 C   0  0  0  0  0  0  0  0  0  0  0  0
    0.7500    1.2990    0.0000 C   0  0  0  0  0  0  0  0  0  0  0  0
    0.0000    2.5000    0.0000 R   0  0  0  0  0  0  0  0  0  0  0  0
    1.2990    3.2500    0.0000 F   0  0  0  0  0  0  0  0  0  0  0  0
  1  2  1  0
  2  3  1  0
  2  4  1  0
  2  5  1  0
  5  6  1  0
  5  7  1  0
  5  8  1  0
  8  9  1  0
  8 10  1  0
  8 11  1  0
 11 12  1  0
 11 13  1  0
 11 14  1  0
 14 15  1  0
 14 16  1  0
 14 17  1  0
 17 18  1  0
 17 19  1  0
 17 20  1  0
 20 21  1  0
 21 22  2  0
 22 23  1  0
 23 24  2  0
 24 25  1  0
 25 26  2  0
 25 27  2  0
 25 28  1  0
 24 29  1  0
 29 30  2  0
 31 32  1  0
 30 21  1  0
M  END
$$$$

     RDKit          2D

 23 21  0  0  0  0  0  0  0  0999 V2000
   -0.0000   -1.5000    0.0000 O   0  0  0  0  0  0  0  0  0  0  0  0
    0.0000    0.0000    0.0000 C   0  0  0  0  0  0  0  0  0  0  0  0
   -1.2990    0.7500    0.0000 O   0  0  0  0  0  0  0  0  0  0  0  0
    1.2990    0.7500    0.0000 C   0  0  0  0  0  0  0  0  0  0  0  0
    2.0490   -0.5490    0.0000 F   0  0  0  0  0  0  0  0  0  0  0  0
    0.5490    2.0490    0.0000 F   0  0  0  0  0  0  0  0  0  0  0  0
    2.5981    1.5000    0.0000 C   0  0  0  0  0  0  0  0  0  0  0  0
    1.8481    2.7990    0.0000 F   0  0  0  0  0  0  0  0  0  0  0  0
    3.3481    0.2010    0.0000 F   0  0  0  0  0  0  0  0  0  0  0  0
    3.8971    2.2500    0.0000 C   0  0  0  0  0  0  0  0  0  0  0  0
    4.6471    0.9510    0.0000 F   0  0  0  0  0  0  0  0  0  0  0  0
    3.1471    3.5490    0.0000 F   0  0  0  0  0  0  0  0  0  0  0  0
    5.1962    3.0000    0.0000 C   0  0  0  0  0  0  0  0  0  0  0  0
    4.4462    4.2990    0.0000 F   0  0  0  0  0  0  0  0  0  0  0  0
    5.9462    1.7010    0.0000 F   0  0  0  0  0  0  0  0  0  0  0  0
    6.4952    3.7500    0.0000 C   0  0  0  0  0  0  0  0  0  0  0  0
    7.2452    2.4510    0.0000 F   0  0  0  0  0  0  0  0  0  0  0  0
    5.7452    5.0490    0.0000 F   0  0  0  0  0  0  0  0  0  0  0  0
    7.7942    4.5000    0.0000 C   0  0  0  0  0  0  0  0  0  0  0  0
    9.0933    5.2500    0.0000 F   0  0  0  0  0  0  0  0  0  0  0  0
    7.0442    5.7990    0.0000 F   0  0  0  0  0  0  0  0  0  0  0  0
    8.5442    3.2010    0.0000 F   0  0  0  0  0  0  0  0  0  0  0  0
    0.0000    6.7990    0.0000 N   0  0  0  0  0  0  0  0  0  0  0  0
  1  2  2  0
  2  3  1  0
  2  4  1  0
  4  5  1  0
  4  6  1  0
  4  7  1  0
  7  8  1  0
  7  9  1  0
  7 10  1  0
 10 11  1  0
 10 12  1  0
 10 13  1  0
 13 14  1  0
 13 15  1  0
 13 16  1  0
 16 17  1  0
 16 18  1  0
 16 19  1  0
 19 20  1  0
 19 21  1  0
 19 22  1  0
M  CHG  2   3  -1  23   1
M  END
$$$$

     RDKit          2D

 26 25  0  0  0  0  0  0  0  0999 V2000
   -1.8481   -1.2990    0.0000 O   0  0  0  0  0  0  0  0  0  0  0  0
   -2.5981    0.0000    0.0000 S   0  0  0  0  0  0  0  0  0  0  0  0
   -3.3481    1.2990    0.0000 O   0  0  0  0  0  0  0  0  0  0  0  0
   -3.8971   -0.7500    0.0000 O   0  0  0  0  0  0  0  0  0  0  0  0
   -1.2990    0.7500    0.0000 O   0  0  0  0  0  0  0  0  0  0  0  0
    0.0000    0.0000    0.0000 C   0  0  0  0  0  0  0  0  0  0  0  0
    1.2990    0.7500    0.0000 C   0  0  0  0  0  0  0  0  0  0  0  0
    2.5981   -0.0000    0.0000 C   0  0  0  0  0  0  0  0  0  0  0  0
    3.3481    1.2990    0.0000 F   0  0  0  0  0  0  0  0  0  0  0  0
    1.8481   -1.2990    0.0000 F   0  0  0  0  0  0  0  0  0  0  0  0
    3.8971   -0.7500    0.0000 C   0  0  0  0  0  0  0  0  0  0  0  0
    3.1471   -2.0490    0.0000 F   0  0  0  0  0  0  0  0  0  0  0  0
    4.6471    0.5490    0.0000 F   0  0  0  0  0  0  0  0  0  0  0  0
    5.1962   -1.5000    0.0000 C   0  0  0  0  0  0  0  0  0  0  0  0
    5.9462   -0.2010    0.0000 F   0  0  0  0  0  0  0  0  0  0  0  0
    4.4462   -2.7990    0.0000 F   0  0  0  0  0  0  0  0  0  0  0  0
    6.4952   -2.2500    0.0000 C   0  0  0  0  0  0  0  0  0  0  0  0
    5.7452   -3.5490    0.0000 F   0  0  0  0  0  0  0  0  0  0  0  0
    7.2452   -0.9510    0.0000 F   0  0  0  0  0  0  0  0  0  0  0  0
    7.7942   -3.0000    0.0000 C   0  0  0  0  0  0  0  0  0  0  0  0
    8.5442   -1.7010    0.0000 F   0  0  0  0  0  0  0  0  0  0  0  0
    7.0442   -4.2990    0.0000 F   0  0  0  0  0  0  0  0  0  0  0  0
    9.0933   -3.7500    0.0000 C   0  0  0  0  0  0  0  0  0  0  0  0
   10.3923   -4.5000    0.0000 F   0  0  0  0  0  0  0  0  0  0  0  0
    8.3433   -5.0490    0.0000 F   0  0  0  0  0  0  0  0  0  0  0  0
    9.8433   -2.4510    0.0000 F   0  0  0  0  0  0  0  0  0  0  0  0
  1  2  2  0
  2  3  2  0
  2  4  1  0
  2  5  1  0
  5  6  1  0
  6  7  1  0
  7  8  1  0
  8  9  1  0
  8 10  1  0
  8 11  1  0
 11 12  1  0
 11 13  1  0
 11 14  1  0
 14 15  1  0
 14 16  1  0
 14 17  1  0
 17 18  1  0
 17 19  1  0
 17 20  1  0
 20 21  1  0
 20 22  1  0
 20 23  1  0
 23 24  1  0
 23 25  1  0
 23 26  1  0
M  END
$$$$

     RDKit          2D

 34 36  0  0  0  0  0  0  0  0999 V2000
    3.7110   -2.6401    0.0000 O   0  0  0  0  0  0  0  0  0  0  0  0
    3.2475   -1.2135    0.0000 C   0  0  0  0  0  0  0  0  0  0  0  0
    4.1291   -0.0000    0.0000 O   0  0  0  0  0  0  0  0  0  0  0  0
    3.2475    1.2135    0.0000 C   0  0  0  0  0  0  0  0  0  0  0  0
    3.7110    2.6401    0.0000 O   0  0  0  0  0  0  0  0  0  0  0  0
    1.8209    0.7500    0.0000 C   0  0  0  0  0  0  0  0  0  0  0  0
    0.3943    1.2135    0.0000 C   0  0  0  0  0  0  0  0  0  0  0  0
    1.2760    0.0000    0.0000 C   0  0  0  0  0  0  0  0  0  0  0  0
    0.3943   -1.2135    0.0000 C   0  0  0  0  0  0  0  0  0  0  0  0
   -1.0323   -0.7500    0.0000 C   0  0  0  0  0  0  0  0  0  0  0  0
   -1.0323    0.7500    0.0000 C   0  0  0  0  0  0  0  0  0  0  0  0
   -2.2458    1.6317    0.0000 S   0  0  0  0  0  0  0  0  0  0  0  0
   -2.0890    3.1235    0.0000 C   0  0  0  0  0  0  0  0  0  0  0  0
   -3.3025    4.0051    0.0000 C   0  0  0  0  0  0  0  0  0  0  0  0
   -3.1458    5.4969    0.0000 C   0  0  0  0  0  0  0  0  0  0  0  0
   -4.6375    5.6537    0.0000 F   0  0  0  0  0  0  0  0  0  0  0  0
   -1.6540    5.3401    0.0000 F   0  0  0  0  0  0  0  0  0  0  0  0
   -2.9890    6.9887    0.0000 C   0  0  0  0  0  0  0  0  0  0  0  0
   -1.4972    6.8319    0.0000 F   0  0  0  0  0  0  0  0  0  0  0  0
   -4.4807    7.1455    0.0000 F   0  0  0  0  0  0  0  0  0  0  0  0
   -2.8322    8.4805    0.0000 C   0  0  0  0  0  0  0  0  0  0  0  0
   -4.3239    8.6373    0.0000 F   0  0  0  0  0  0  0  0  0  0  0  0
   -1.3404    8.3237    0.0000 F   0  0  0  0  0  0  0  0  0  0  0  0
   -2.6754    9.9723    0.0000 C   0  0  0  0  0  0  0  0  0  0  0  0
   -1.1836    9.8155    0.0000 F   0  0  0  0  0  0  0  0  0  0  0  0
   -4.1672   10.1291    0.0000 F   0  0  0  0  0  0  0  0  0  0  0  0
   -2.5186   11.4641    0.0000 C   0  0  0  0  0  0  0  0  0  0  0  0
   -4.0104   11.6208    0.0000 F   0  0  0  0  0  0  0  0  0  0  0  0
   -1.0268   11.3073    0.0000 F   0  0  0  0  0  0  0  0  0  0  0  0
   -2.3618   12.9558    0.0000 C   0  0  0  0  0  0  0  0  0  0  0  0
   -2.2050   14.4476    0.0000 F   0  0  0  0  0  0  0  0  0  0  0  0
   -0.8700   12.7990    0.0000 F   0  0  0  0  0  0  0  0  0  0  0  0
   -3.8536   13.1126    0.0000 F   0  0  0  0  0  0  0  0  0  0  0  0
    1.8209   -0.7500    0.0000 C   0  0  0  0  0  0  0  0  0  0  0  0
  1  2  2  0
  2  3  1  0
  3  4  1  0
  4  5  2  0
  4  6  1  0
  6  7  1  0
  7  8  1  0
  8  9  1  0
  9 10  1  0
 10 11  1  0
 11 12  1  0
 12 13  1  0
 13 14  1  0
 14 15  1  0
 15 16  1  0
 15 17  1  0
 15 18  1  0
 18 19  1  0
 18 20  1  0
 18 21  1  0
 21 22  1  0
 21 23  1  0
 21 24  1  0
 24 25  1  0
 24 26  1  0
 24 27  1  0
 27 28  1  0
 27 29  1  0
 27 30  1  0
 30 31  1  0
 30 32  1  0
 30 33  1  0
  9 34  1  0
 34  2  1  0
 34  6  1  0
 11  7  1  0
M  END
$$$$

     RDKit          2D

 49 48  0  0  0  0  0  0  0  0999 V2000
    0.0000    0.0000    0.0000 C   0  0  0  0  0  0  0  0  0  0  0  0
    1.2990    0.7500    0.0000 O   0  0  0  0  0  0  0  0  0  0  0  0
    2.5981   -0.0000    0.0000 C   0  0  0  0  0  0  0  0  0  0  0  0
    2.5981   -1.5000    0.0000 O   0  0  0  0  0  0  0  0  0  0  0  0
    3.8971    0.7500    0.0000 C   0  0  0  0  0  0  0  0  0  0  0  0
    5.1962   -0.0000    0.0000 S   0  0  0  0  0  0  0  0  0  0  0  0
    6.4952    0.7500    0.0000 C   0  0  0  0  0  0  0  0  0  0  0  0
    7.7942   -0.0000    0.0000 C   0  0  0  0  0  0  0  0  0  0  0  0
    9.0933    0.7500    0.0000 C   0  0  0  0  0  0  0  0  0  0  0  0
    9.8433   -0.5490    0.0000 F   0  0  0  0  0  0  0  0  0  0  0  0
    8.3433    2.0490    0.0000 F   0  0  0  0  0  0  0  0  0  0  0  0
   10.3923    1.5000    0.0000 C   0  0  0  0  0  0  0  0  0  0  0  0
    9.6423    2.7990    0.0000 F   0  0  0  0  0  0  0  0  0  0  0  0
   11.1423    0.2010    0.0000 F   0  0  0  0  0  0  0  0  0  0  0  0
   11.6913    2.2500    0.0000 C   0  0  0  0  0  0  0  0  0  0  0  0
   12.4413    0.9510    0.0000 F   0  0  0  0  0  0  0  0  0  0  0  0
   10.9413    3.5490    0.0000 F   0  0  0  0  0  0  0  0  0  0  0  0
   12.9904    3.0000    0.0000 C   0  0  0  0  0  0  0  0  0  0  0  0
   12.2404    4.2990    0.0000 F   0  0  0  0  0  0  0  0  0  0  0  0
   13.7404    1.7010    0.0000 F   0  0  0  0  0  0  0  0  0  0  0  0
   14.2894    3.7500    0.0000 C   0  0  0  0  0  0  0  0  0  0  0  0
   15.0394    2.4510    0.0000 F   0  0  0  0  0  0  0  0  0  0  0  0
   13.5394    5.0490    0.0000 F   0  0  0  0  0  0  0  0  0  0  0  0
   15.5885    4.5000    0.0000 C   0  0  0  0  0  0  0  0  0  0  0  0
   16.8875    5.2500    0.0000 F   0  0  0  0  0  0  0  0  0  0  0  0
   14.8385    5.7990    0.0000 F   0  0  0  0  0  0  0  0  0  0  0  0
   16.3385    3.2010    0.0000 F   0  0  0  0  0  0  0  0  0  0  0  0
    3.8971    2.2500    0.0000 S   0  0  0  0  0  0  0  0  0  0  0  0
    5.1962    3.0000    0.0000 C   0  0  0  0  0  0  0  0  0  0  0  0
    5.1962    4.5000    0.0000 C   0  0  0  0  0  0  0  0  0  0  0  0
    6.4952    5.2500    0.0000 C   0  0  0  0  0  0  0  0  0  0  0  0
    5.7452    6.5490    0.0000 F   0  0  0  0  0  0  0  0  0  0  0  0
    7.2452    3.9510    0.0000 F   0  0  0  0  0  0  0  0  0  0  0  0
    7.7942    6.0000    0.0000 C   0  0  0  0  0  0  0  0  0  0  0  0
    8.5442    4.7010    0.0000 F   0  0  0  0  0  0  0  0  0  0  0  0
    7.0442    7.2990    0.0000 F   0  0  0  0  0  0  0  0  0  0  0  0
    9.0933    6.7500    0.0000 C   0  0  0  0  0  0  0  0  0  0  0  0
    8.3433    8.0490    0.0000 F   0  0  0  0  0  0  0  0  0  0  0  0
    9.8433    5.4510    0.0000 F   0  0  0  0  0  0  0  0  0  0  0  0
   10.3923    7.5000    0.0000 C   0  0  0  0  0  0  0  0  0  0  0  0
   11.1423    6.2010    0.0000 F   0  0  0  0  0  0  0  0  0  0  0  0
    9.6423    8.7990    0.0000 F   0  0  0  0  0  0  0  0  0  0  0  0
   11.6913    8.2500    0.0000 C   0  0  0  0  0  0  0  0  0  0  0  0
   10.9413    9.5490    0.0000 F   0  0  0  0  0  0  0  0  0  0  0  0
   12.4413    6.9510    0.0000 F   0  0  0  0  0  0  0  0  0  0  0  0
   12.9904    9.0000    0.0000 C   0  0  0  0  0  0  0  0  0  0  0  0
   14.2894    9.7500    0.0000 F   0  0  0  0  0  0  0  0  0  0  0  0
   13.7404    7.7010    0.0000 F   0  0  0  0  0  0  0  0  0  0  0  0
   12.2404   10.2990    0.0000 F   0  0  0  0  0  0  0  0  0  0  0  0
  1  2  1  0
  2  3  1  0
  3  4  2  0
  3  5  1  0
  5  6  1  0
  6  7  1  0
  7  8  1  0
  8  9  1  0
  9 10  1  0
  9 11  1  0
  9 12  1  0
 12 13  1  0
 12 14  1  0
 12 15  1  0
 15 16  1  0
 15 17  1  0
 15 18  1  0
 18 19  1  0
 18 20  1  0
 18 21  1  0
 21 22  1  0
 21 23  1  0
 21 24  1  0
 24 25  1  0
 24 26  1  0
 24 27  1  0
  5 28  1  0
 28 29  1  0
 29 30  1  0
 30 31  1  0
 31 32  1  0
 31 33  1  0
 31 34  1  0
 34 35  1  0
 34 36  1  0
 34 37  1  0
 37 38  1  0
 37 39  1  0
 37 40  1  0
 40 41  1  0
 40 42  1  0
 40 43  1  0
 43 44  1  0
 43 45  1  0
 43 46  1  0
 46 47  1  0
 46 48  1  0
 46 49  1  0
M  END
$$$$

     RDKit          2D

 11  9  0  0  0  0  0  0  0  0999 V2000
   -2.0490   -0.5490    0.0000 O   0  0  0  0  0  0  0  0  0  0  0  0
   -1.2990    0.7500    0.0000 S   0  0  0  0  0  0  0  0  0  0  0  0
   -0.5490    2.0490    0.0000 O   0  0  0  0  0  0  0  0  0  0  0  0
   -2.5981    1.5000    0.0000 O   0  0  0  0  0  0  0  0  0  0  0  0
    0.0000    0.0000    0.0000 C   0  0  0  0  0  0  0  0  0  0  0  0
    1.2990    0.7500    0.0000 C   0  0  0  0  0  0  0  0  0  0  0  0
    2.5981   -0.0000    0.0000 C   0  0  0  0  0  0  0  0  0  0  0  0
    3.8971   -0.7500    0.0000 F   0  0  0  0  0  0  0  0  0  0  0  0
    3.3481    1.2990    0.0000 F   0  0  0  0  0  0  0  0  0  0  0  0
    1.8481   -1.2990    0.0000 F   0  0  0  0  0  0  0  0  0  0  0  0
    0.0000    3.0490    0.0000 N   0  0  0  0  0  0  0  0  0  0  0  0
  1  2  2  0
  2  3  2  0
  2  4  1  0
  2  5  1  0
  5  6  1  0
  6  7  1  0
  7  8  1  0
  7  9  1  0
  7 10  1  0
M  CHG  1  11   1
M  END
$$$$

     RDKit          2D

 20 18  0  0  0  0  0  0  0  0999 V2000
   -2.0490   -0.5490    0.0000 O   0  0  0  0  0  0  0  0  0  0  0  0
   -1.2990    0.7500    0.0000 S   0  0  0  0  0  0  0  0  0  0  0  0
   -0.5490    2.0490    0.0000 O   0  0  0  0  0  0  0  0  0  0  0  0
   -2.5981    1.5000    0.0000 O   0  0  0  0  0  0  0  0  0  0  0  0
    0.0000    0.0000    0.0000 C   0  0  0  0  0  0  0  0  0  0  0  0
    1.2990    0.7500    0.0000 C   0  0  0  0  0  0  0  0  0  0  0  0
    2.5981   -0.0000    0.0000 C   0  0  0  0  0  0  0  0  0  0  0  0
    3.3481    1.2990    0.0000 F   0  0  0  0  0  0  0  0  0  0  0  0
    1.8481   -1.2990    0.0000 F   0  0  0  0  0  0  0  0  0  0  0  0
    3.8971   -0.7500    0.0000 C   0  0  0  0  0  0  0  0  0  0  0  0
    3.1471   -2.0490    0.0000 F   0  0  0  0  0  0  0  0  0  0  0  0
    4.6471    0.5490    0.0000 F   0  0  0  0  0  0  0  0  0  0  0  0
    5.1962   -1.5000    0.0000 C   0  0  0  0  0  0  0  0  0  0  0  0
    5.9462   -0.2010    0.0000 F   0  0  0  0  0  0  0  0  0  0  0  0
    4.4462   -2.7990    0.0000 F   0  0  0  0  0  0  0  0  0  0  0  0
    6.4952   -2.2500    0.0000 C   0  0  0  0  0  0  0  0  0  0  0  0
    7.7942   -3.0000    0.0000 F   0  0  0  0  0  0  0  0  0  0  0  0
    5.7452   -3.5490    0.0000 F   0  0  0  0  0  0  0  0  0  0  0  0
    7.2452   -0.9510    0.0000 F   0  0  0  0  0  0  0  0  0  0  0  0
    0.0000    3.0490    0.0000 N   0  0  0  0  0  0  0  0  0  0  0  0
  1  2  2  0
  2  3  2  0
  2  4  1  0
  2  5  1  0
  5  6  1  0
  6  7  1  0
  7  8  1  0
  7  9  1  0
  7 10  1  0
 10 11  1  0
 10 12  1  0
 10 13  1  0
 13 14  1  0
 13 15  1  0
 13 16  1  0
 16 17  1  0
 16 18  1  0
 16 19  1  0
M  CHG  2   4  -1  20   1
M  END
$$$$

     RDKit          2D

 10  9  0  0  0  0  0  0  0  0999 V2000
   -2.0490   -0.5490    0.0000 O   0  0  0  0  0  0  0  0  0  0  0  0
   -1.2990    0.7500    0.0000 S   0  0  0  0  0  0  0  0  0  0  0  0
   -0.5490    2.0490    0.0000 O   0  0  0  0  0  0  0  0  0  0  0  0
   -2.5981    1.5000    0.0000 O   0  0  0  0  0  0  0  0  0  0  0  0
    0.0000    0.0000    0.0000 C   0  0  0  0  0  0  0  0  0  0  0  0
    1.2990    0.7500    0.0000 C   0  0  0  0  0  0  0  0  0  0  0  0
    2.5981   -0.0000    0.0000 C   0  0  0  0  0  0  0  0  0  0  0  0
    3.8971   -0.7500    0.0000 F   0  0  0  0  0  0  0  0  0  0  0  0
    3.3481    1.2990    0.0000 F   0  0  0  0  0  0  0  0  0  0  0  0
    1.8481   -1.2990    0.0000 F   0  0  0  0  0  0  0  0  0  0  0  0
  1  2  2  0
  2  3  2  0
  2  4  1  0
  2  5  1  0
  5  6  1  0
  6  7  1  0
  7  8  1  0
  7  9  1  0
  7 10  1  0
M  END
$$$$

     RDKit          2D

 12 11  0  0  0  0  0  0  0  0999 V2000
    3.7500   -1.2990    0.0000 O   0  0  0  0  0  0  0  0  0  0  0  0
    2.2500   -1.2990    0.0000 P   0  0  0  0  0  5  0  0  0  0  0  0
    1.5000    0.0000    0.0000 O   0  0  0  0  0  0  0  0  0  0  0  0
    0.0000    0.0000    0.0000 C   0  0  0  0  0  0  0  0  0  0  0  0
   -1.5000    0.0000    0.0000 F   0  0  0  0  0  0  0  0  0  0  0  0
    0.0000    1.5000    0.0000 F   0  0  0  0  0  0  0  0  0  0  0  0
   -0.0000   -1.5000    0.0000 F   0  0  0  0  0  0  0  0  0  0  0  0
    1.5000   -2.5981    0.0000 O   0  0  0  0  0  0  0  0  0  0  0  0
    2.2500   -3.8971    0.0000 C   0  0  0  0  0  0  0  0  0  0  0  0
    3.0000   -5.1962    0.0000 F   0  0  0  0  0  0  0  0  0  0  0  0
    0.9510   -4.6471    0.0000 F   0  0  0  0  0  0  0  0  0  0  0  0
    3.5490   -3.1471    0.0000 F   0  0  0  0  0  0  0  0  0  0  0  0
  1  2  2  0
  2  3  1  0
  3  4  1  0
  4  5  1  0
  4  6  1  0
  4  7  1  0
  2  8  1  0
  8  9  1  0
  9 10  1  0
  9 11  1  0
  9 12  1  0
M  END
$$$$

     RDKit          2D

 18 16  0  0  0  0  0  0  0  0999 V2000
   -3.3481    1.2990    0.0000 O   0  0  0  0  0  0  0  0  0  0  0  0
   -2.5981    0.0000    0.0000 P   0  0  0  0  0  0  0  0  0  0  0  0
   -1.8481   -1.2990    0.0000 O   0  0  0  0  0  0  0  0  0  0  0  0
   -3.8971   -0.7500    0.0000 O   0  0  0  0  0  0  0  0  0  0  0  0
   -1.2990    0.7500    0.0000 O   0  0  0  0  0  0  0  0  0  0  0  0
    0.0000    0.0000    0.0000 C   0  0  0  0  0  0  0  0  0  0  0  0
    1.2990    0.7500    0.0000 C   0  0  0  0  0  0  0  0  0  0  0  0
    2.5981   -0.0000    0.0000 C   0  0  0  0  0  0  0  0  0  0  0  0
    3.8971   -0.7500    0.0000 F   0  0  0  0  0  0  0  0  0  0  0  0
    3.3481    1.2990    0.0000 F   0  0  0  0  0  0  0  0  0  0  0  0
    1.8481   -1.2990    0.0000 F   0  0  0  0  0  0  0  0  0  0  0  0
   -1.2990    3.0490    0.0000 O   0  0  0  0  0  0  0  0  0  0  0  0
    0.0000    2.2990    0.0000 C   0  0  0  0  0  0  0  0  0  0  0  0
    1.2990    3.0490    0.0000 C   0  0  0  0  0  0  0  0  0  0  0  0
    2.5981    2.2990    0.0000 N   0  0  0  0  0  0  0  0  0  0  0  0
    3.8971    3.0490    0.0000 C   0  0  0  0  0  0  0  0  0  0  0  0
    5.1962    2.2990    0.0000 C   0  0  0  0  0  0  0  0  0  0  0  0
    6.4952    3.0490    0.0000 O   0  0  0  0  0  0  0  0  0  0  0  0
  1  2  2  0
  2  3  1  0
  2  4  1  0
  2  5  1  0
  5  6  1  0
  6  7  1  0
  7  8  1  0
  8  9  1  0
  8 10  1  0
  8 11  1  0
 12 13  1  0
 13 14  1  0
 14 15  1  0
 15 16  1  0
 16 17  1  0
 17 18  1  0
M  END
$$$$

     RDKit          2D

 16 14  0  0  0  0  0  0  0  0999 V2000
    0.0000    0.0000    0.0000 C   0  0  0  0  0  0  0  0  0  0  0  0
    1.2990    0.7500    0.0000 N   0  0  0  0  0  0  0  0  0  0  0  0
    2.5981    1.5000    0.0000 C   0  0  0  0  0  0  0  0  0  0  0  0
    2.0490   -0.5490    0.0000 C   0  0  0  0  0  0  0  0  0  0  0  0
    0.5490    2.0490    0.0000 C   0  0  0  0  0  0  0  0  0  0  0  0
    1.2990    3.3481    0.0000 C   0  0  0  0  0  0  0  0  0  0  0  0
    2.7990    3.3481    0.0000 O   0  0  0  0  0  0  0  0  0  0  0  0
    0.5490    4.6471    0.0000 C   0  0  0  0  0  0  0  0  0  0  0  0
    1.2990    5.9462    0.0000 S   0  0  0  0  0  0  0  0  0  0  0  0
    0.5490    7.2452    0.0000 C   0  0  0  0  0  0  0  0  0  0  0  0
    1.2990    8.5442    0.0000 C   0  0  0  0  0  0  0  0  0  0  0  0
    0.5490    9.8433    0.0000 C   0  0  0  0  0  0  0  0  0  0  0  0
   -0.2010   11.1423    0.0000 F   0  0  0  0  0  0  0  0  0  0  0  0
    1.8481   10.5933    0.0000 F   0  0  0  0  0  0  0  0  0  0  0  0
   -0.7500    9.0933    0.0000 F   0  0  0  0  0  0  0  0  0  0  0  0
    3.7990    0.0000    0.0000 Cl  0  0  0  0  0  0  0  0  0  0  0  0
  1  2  1  0
  2  3  1  0
  2  4  1  0
  2  5  1  0
  5  6  1  0
  6  7  1  0
  6  8  1  0
  8  9  1  0
  9 10  1  0
 10 11  1  0
 11 12  1  0
 12 13  1  0
 12 14  1  0
 12 15  1  0
M  CHG  2   2   1  16  -1
M  END
$$$$

     RDKit          2D

 25 23  0  0  0  0  0  0  0  0999 V2000
    0.0000    0.0000    0.0000 C   0  0  0  0  0  0  0  0  0  0  0  0
    1.2990    0.7500    0.0000 C   0  0  0  0  0  0  0  0  0  0  0  0
    2.5981   -0.0000    0.0000 N   0  0  0  0  0  0  0  0  0  0  0  0
   -0.0000    1.7500    0.0000 O   0  0  0  0  0  0  0  0  0  0  0  0
    0.0000    3.2500    0.0000 C   0  0  0  0  0  0  0  0  0  0  0  0
   -1.2990    4.0000    0.0000 O   0  0  0  0  0  0  0  0  0  0  0  0
    1.2990    4.0000    0.0000 C   0  0  0  0  0  0  0  0  0  0  0  0
    2.0490    2.7010    0.0000 F   0  0  0  0  0  0  0  0  0  0  0  0
    0.5490    5.2990    0.0000 F   0  0  0  0  0  0  0  0  0  0  0  0
    2.5981    4.7500    0.0000 C   0  0  0  0  0  0  0  0  0  0  0  0
    1.8481    6.0490    0.0000 F   0  0  0  0  0  0  0  0  0  0  0  0
    3.3481    3.4510    0.0000 F   0  0  0  0  0  0  0  0  0  0  0  0
    3.8971    5.5000    0.0000 C   0  0  0  0  0  0  0  0  0  0  0  0
    4.6471    4.2010    0.0000 F   0  0  0  0  0  0  0  0  0  0  0  0
    3.1471    6.7990    0.0000 F   0  0  0  0  0  0  0  0  0  0  0  0
    5.1962    6.2500    0.0000 C   0  0  0  0  0  0  0  0  0  0  0  0
    4.4462    7.5490    0.0000 F   0  0  0  0  0  0  0  0  0  0  0  0
    5.9462    4.9510    0.0000 F   0  0  0  0  0  0  0  0  0  0  0  0
    6.4952    7.0000    0.0000 C   0  0  0  0  0  0  0  0  0  0  0  0
    7.2452    5.7010    0.0000 F   0  0  0  0  0  0  0  0  0  0  0  0
    5.7452    8.2990    0.0000 F   0  0  0  0  0  0  0  0  0  0  0  0
    7.7942    7.7500    0.0000 C   0  0  0  0  0  0  0  0  0  0  0  0
    9.0933    8.5000    0.0000 F   0  0  0  0  0  0  0  0  0  0  0  0
    7.0442    9.0490    0.0000 F   0  0  0  0  0  0  0  0  0  0  0  0
    8.5442    6.4510    0.0000 F   0  0  0  0  0  0  0  0  0  0  0  0
  1  2  1  0
  2  3  1  0
  4  5  2  0
  5  6  1  0
  5  7  1  0
  7  8  1  0
  7  9  1  0
  7 10  1  0
 10 11  1  0
 10 12  1  0
 10 13  1  0
 13 14  1  0
 13 15  1  0
 13 16  1  0
 16 17  1  0
 16 18  1  0
 16 19  1  0
 19 20  1  0
 19 21  1  0
 19 22  1  0
 22 23  1  0
 22 24  1  0
 22 25  1  0
M  END
$$$$

     RDKit          2D

 44 43  0  0  0  0  0  0  0  0999 V2000
    0.0000    0.0000    0.0000 C   0  0  0  0  0  0  0  0  0  0  0  0
    1.2990    0.7500    0.0000 C   0  0  0  0  0  0  0  0  0  0  0  0
    2.5981   -0.0000    0.0000 C   0  0  0  0  0  0  0  0  0  0  0  0
    3.8971    0.7500    0.0000 C   0  0  0  0  0  0  0  0  0  0  0  0
    5.1962   -0.0000    0.0000 C   0  0  0  0  0  0  0  0  0  0  0  0
    6.4952    0.7500    0.0000 C   0  0  0  0  0  0  0  0  0  0  0  0
    7.7942   -0.0000    0.0000 C   0  0  0  0  0  0  0  0  0  0  0  0
    9.0933    0.7500    0.0000 C   0  0  0  0  0  0  0  0  0  0  0  0
   10.3923   -0.0000    0.0000 N   0  0  0  0  0  0  0  0  0  0  0  0
   11.6913    0.7500    0.0000 C   0  0  0  0  0  0  0  0  0  0  0  0
   12.9904   -0.0000    0.0000 C   0  0  0  0  0  0  0  0  0  0  0  0
   14.2894    0.7500    0.0000 O   0  0  0  0  0  0  0  0  0  0  0  0
   15.5885   -0.0000    0.0000 C   0  0  0  0  0  0  0  0  0  0  0  0
   16.8875    0.7500    0.0000 C   0  0  0  0  0  0  0  0  0  0  0  0
   18.1865   -0.0000    0.0000 O   0  0  0  0  0  0  0  0  0  0  0  0
   10.3923   -1.5000    0.0000 C   0  0  0  0  0  0  0  0  0  0  0  0
   11.6913   -2.2500    0.0000 C   0  0  0  0  0  0  0  0  0  0  0  0
   11.6913   -3.7500    0.0000 C   0  0  0  0  0  0  0  0  0  0  0  0
   12.9904   -4.5000    0.0000 O   0  0  0  0  0  0  0  0  0  0  0  0
   12.9904   -6.0000    0.0000 C   0  0  0  0  0  0  0  0  0  0  0  0
   14.2894   -6.7500    0.0000 C   0  0  0  0  0  0  0  0  0  0  0  0
   14.2894   -8.2500    0.0000 C   0  0  0  0  0  0  0  0  0  0  0  0
   15.7894   -8.2500    0.0000 F   0  0  0  0  0  0  0  0  0  0  0  0
   12.7894   -8.2500    0.0000 F   0  0  0  0  0  0  0  0  0  0  0  0
   14.2894   -9.7500    0.0000 C   0  0  0  0  0  0  0  0  0  0  0  0
   12.7894   -9.7500    0.0000 F   0  0  0  0  0  0  0  0  0  0  0  0
   15.7894   -9.7500    0.0000 F   0  0  0  0  0  0  0  0  0  0  0  0
   14.2894  -11.2500    0.0000 C   0  0  0  0  0  0  0  0  0  0  0  0
   15.7894  -11.2500    0.0000 F   0  0  0  0  0  0  0  0  0  0  0  0
   12.7894  -11.2500    0.0000 F   0  0  0  0  0  0  0  0  0  0  0  0
   14.2894  -12.7500    0.0000 C   0  0  0  0  0  0  0  0  0  0  0  0
   12.7894  -12.7500    0.0000 F   0  0  0  0  0  0  0  0  0  0  0  0
   15.7894  -12.7500    0.0000 F   0  0  0  0  0  0  0  0  0  0  0  0
   14.2894  -14.2500    0.0000 C   0  0  0  0  0  0  0  0  0  0  0  0
   15.7894  -14.2500    0.0000 F   0  0  0  0  0  0  0  0  0  0  0  0
   12.7894  -14.2500    0.0000 F   0  0  0  0  0  0  0  0  0  0  0  0
   14.2894  -15.7500    0.0000 C   0  0  0  0  0  0  0  0  0  0  0  0
   14.2894  -17.2500    0.0000 F   0  0  0  0  0  0  0  0  0  0  0  0
   12.7894  -15.7500    0.0000 F   0  0  0  0  0  0  0  0  0  0  0  0
   15.7894  -15.7500    0.0000 F   0  0  0  0  0  0  0  0  0  0  0  0
   12.9904   -1.5000    0.0000 O   0  0  0  0  0  0  0  0  0  0  0  0
   14.2894   -2.2500    0.0000 C   0  0  0  0  0  0  0  0  0  0  0  0
   15.5885   -1.5000    0.0000 C   0  0  0  0  0  0  0  0  0  0  0  0
   16.8875   -2.2500    0.0000 O   0  0  0  0  0  0  0  0  0  0  0  0
  1  2  1  0
  2  3  1  0
  3  4  1  0
  4  5  1  0
  5  6  1  0
  6  7  1  0
  7  8  1  0
  8  9  1  0
  9 10  1  0
 10 11  1  0
 11 12  1  0
 12 13  1  0
 13 14  1  0
 14 15  1  0
  9 16  1  0
 16 17  1  0
 17 18  1  0
 18 19  1  0
 19 20  1  0
 20 21  1  0
 21 22  1  0
 22 23  1  0
 22 24  1  0
 22 25  1  0
 25 26  1  0
 25 27  1  0
 25 28  1  0
 28 29  1  0
 28 30  1  0
 28 31  1  0
 31 32  1  0
 31 33  1  0
 31 34  1  0
 34 35  1  0
 34 36  1  0
 34 37  1  0
 37 38  1  0
 37 39  1  0
 37 40  1  0
 17 41  1  0
 41 42  1  0
 42 43  1  0
 43 44  1  0
M  END
$$$$

     RDKit          2D

 27 25  0  0  0  0  0  0  0  0999 V2000
   -1.8481   -1.2990    0.0000 O   0  0  0  0  0  0  0  0  0  0  0  0
   -2.5981    0.0000    0.0000 S   0  0  0  0  0  0  0  0  0  0  0  0
   -3.3481    1.2990    0.0000 O   0  0  0  0  0  0  0  0  0  0  0  0
   -3.8971   -0.7500    0.0000 O   0  0  0  0  0  0  0  0  0  0  0  0
   -1.2990    0.7500    0.0000 O   0  0  0  0  0  0  0  0  0  0  0  0
    0.0000    0.0000    0.0000 C   0  0  0  0  0  0  0  0  0  0  0  0
    1.2990    0.7500    0.0000 C   0  0  0  0  0  0  0  0  0  0  0  0
    2.5981   -0.0000    0.0000 C   0  0  0  0  0  0  0  0  0  0  0  0
    3.3481    1.2990    0.0000 F   0  0  0  0  0  0  0  0  0  0  0  0
    1.8481   -1.2990    0.0000 F   0  0  0  0  0  0  0  0  0  0  0  0
    3.8971   -0.7500    0.0000 C   0  0  0  0  0  0  0  0  0  0  0  0
    3.1471   -2.0490    0.0000 F   0  0  0  0  0  0  0  0  0  0  0  0
    4.6471    0.5490    0.0000 F   0  0  0  0  0  0  0  0  0  0  0  0
    5.1962   -1.5000    0.0000 C   0  0  0  0  0  0  0  0  0  0  0  0
    5.9462   -0.2010    0.0000 F   0  0  0  0  0  0  0  0  0  0  0  0
    4.4462   -2.7990    0.0000 F   0  0  0  0  0  0  0  0  0  0  0  0
    6.4952   -2.2500    0.0000 C   0  0  0  0  0  0  0  0  0  0  0  0
    5.7452   -3.5490    0.0000 F   0  0  0  0  0  0  0  0  0  0  0  0
    7.2452   -0.9510    0.0000 F   0  0  0  0  0  0  0  0  0  0  0  0
    7.7942   -3.0000    0.0000 C   0  0  0  0  0  0  0  0  0  0  0  0
    8.5442   -1.7010    0.0000 F   0  0  0  0  0  0  0  0  0  0  0  0
    7.0442   -4.2990    0.0000 F   0  0  0  0  0  0  0  0  0  0  0  0
    9.0933   -3.7500    0.0000 C   0  0  0  0  0  0  0  0  0  0  0  0
   10.3923   -4.5000    0.0000 F   0  0  0  0  0  0  0  0  0  0  0  0
    8.3433   -5.0490    0.0000 F   0  0  0  0  0  0  0  0  0  0  0  0
    9.8433   -2.4510    0.0000 F   0  0  0  0  0  0  0  0  0  0  0  0
    0.0000    2.2990    0.0000 N   0  0  0  0  0  0  0  0  0  0  0  0
  1  2  2  0
  2  3  2  0
  2  4  1  0
  2  5  1  0
  5  6  1  0
  6  7  1  0
  7  8  1  0
  8  9  1  0
  8 10  1  0
  8 11  1  0
 11 12  1  0
 11 13  1  0
 11 14  1  0
 14 15  1  0
 14 16  1  0
 14 17  1  0
 17 18  1  0
 17 19  1  0
 17 20  1  0
 20 21  1  0
 20 22  1  0
 20 23  1  0
 23 24  1  0
 23 25  1  0
 23 26  1  0
M  CHG  2   4  -1  27   1
M  END
$$$$

     RDKit          2D

 28 27  0  0  0  0  0  0  0  0999 V2000
   11.6913    6.7500    0.0000 F   0  0  0  0  0  0  0  0  0  0  0  0
   10.3923    6.0000    0.0000 C   0  0  0  0  0  0  0  0  0  0  0  0
    9.6423    7.2990    0.0000 F   0  0  0  0  0  0  0  0  0  0  0  0
   11.1423    4.7010    0.0000 F   0  0  0  0  0  0  0  0  0  0  0  0
    9.0933    5.2500    0.0000 C   0  0  0  0  0  0  0  0  0  0  0  0
    9.8433    3.9510    0.0000 F   0  0  0  0  0  0  0  0  0  0  0  0
    8.3433    6.5490    0.0000 F   0  0  0  0  0  0  0  0  0  0  0  0
    7.7942    4.5000    0.0000 C   0  0  0  0  0  0  0  0  0  0  0  0
    7.0442    5.7990    0.0000 F   0  0  0  0  0  0  0  0  0  0  0  0
    8.5442    3.2010    0.0000 F   0  0  0  0  0  0  0  0  0  0  0  0
    6.4952    3.7500    0.0000 C   0  0  0  0  0  0  0  0  0  0  0  0
    7.2452    2.4510    0.0000 F   0  0  0  0  0  0  0  0  0  0  0  0
    5.7452    5.0490    0.0000 F   0  0  0  0  0  0  0  0  0  0  0  0
    5.1962    3.0000    0.0000 C   0  0  0  0  0  0  0  0  0  0  0  0
    4.4462    4.2990    0.0000 F   0  0  0  0  0  0  0  0  0  0  0  0
    5.9462    1.7010    0.0000 F   0  0  0  0  0  0  0  0  0  0  0  0
    3.8971    2.2500    0.0000 C   0  0  0  0  0  0  0  0  0  0  0  0
    4.6471    0.9510    0.0000 F   0  0  0  0  0  0  0  0  0  0  0  0
    3.1471    3.5490    0.0000 F   0  0  0  0  0  0  0  0  0  0  0  0
    2.5981    1.5000    0.0000 C   0  0  0  0  0  0  0  0  0  0  0  0
    1.8481    2.7990    0.0000 F   0  0  0  0  0  0  0  0  0  0  0  0
    3.3481    0.2010    0.0000 F   0  0  0  0  0  0  0  0  0  0  0  0
    1.2990    0.7500    0.0000 C   0  0  0  0  0  0  0  0  0  0  0  0
    2.0490   -0.5490    0.0000 F   0  0  0  0  0  0  0  0  0  0  0  0
    0.5490    2.0490    0.0000 F   0  0  0  0  0  0  0  0  0  0  0  0
    0.0000    0.0000    0.0000 C   0  0  0  0  0  0  0  0  0  0  0  0
   -1.2990    0.7500    0.0000 C   0  0  0  0  0  0  0  0  0  0  0  0
   -2.5981    0.0000    0.0000 S   0  0  0  0  0  0  0  0  0  0  0  0
  1  2  1  0
  2  3  1  0
  2  4  1  0
  2  5  1  0
  5  6  1  0
  5  7  1  0
  5  8  1  0
  8  9  1  0
  8 10  1  0
  8 11  1  0
 11 12  1  0
 11 13  1  0
 11 14  1  0
 14 15  1  0
 14 16  1  0
 14 17  1  0
 17 18  1  0
 17 19  1  0
 17 20  1  0
 20 21  1  0
 20 22  1  0
 20 23  1  0
 23 24  1  0
 23 25  1  0
 23 26  1  0
 26 27  1  0
 27 28  1  0
M  END
$$$$

     RDKit          2D

 36 35  0  0  0  0  0  0  0  0999 V2000
   -1.2990    0.7500    0.0000 O   0  0  0  0  0  0  0  0  0  0  0  0
    0.0000    0.0000    0.0000 C   0  0  0  0  0  0  0  0  0  0  0  0
    1.2990    0.7500    0.0000 C   0  0  0  0  0  0  0  0  0  0  0  0
    2.5981   -0.0000    0.0000 C   0  0  0  0  0  0  0  0  0  0  0  0
    3.8971    0.7500    0.0000 S   0  0  0  0  0  0  0  0  0  0  0  0
    5.1962   -0.0000    0.0000 C   0  0  0  0  0  0  0  0  0  0  0  0
    6.4952    0.7500    0.0000 C   0  0  0  0  0  0  0  0  0  0  0  0
    7.7942   -0.0000    0.0000 C   0  0  0  0  0  0  0  0  0  0  0  0
    8.5442    1.2990    0.0000 F   0  0  0  0  0  0  0  0  0  0  0  0
    7.0442   -1.2990    0.0000 F   0  0  0  0  0  0  0  0  0  0  0  0
    9.0933   -0.7500    0.0000 C   0  0  0  0  0  0  0  0  0  0  0  0
    8.3433   -2.0490    0.0000 F   0  0  0  0  0  0  0  0  0  0  0  0
    9.8433    0.5490    0.0000 F   0  0  0  0  0  0  0  0  0  0  0  0
   10.3923   -1.5000    0.0000 C   0  0  0  0  0  0  0  0  0  0  0  0
   11.1423   -0.2010    0.0000 F   0  0  0  0  0  0  0  0  0  0  0  0
    9.6423   -2.7990    0.0000 F   0  0  0  0  0  0  0  0  0  0  0  0
   11.6913   -2.2500    0.0000 C   0  0  0  0  0  0  0  0  0  0  0  0
   12.9904   -3.0000    0.0000 F   0  0  0  0  0  0  0  0  0  0  0  0
   10.9413   -3.5490    0.0000 F   0  0  0  0  0  0  0  0  0  0  0  0
   12.4413   -0.9510    0.0000 F   0  0  0  0  0  0  0  0  0  0  0  0
    1.2990    2.2500    0.0000 S   0  0  0  0  0  0  0  0  0  0  0  0
    2.5981    3.0000    0.0000 C   0  0  0  0  0  0  0  0  0  0  0  0
    2.5981    4.5000    0.0000 C   0  0  0  0  0  0  0  0  0  0  0  0
    3.8971    5.2500    0.0000 C   0  0  0  0  0  0  0  0  0  0  0  0
    3.1471    6.5490    0.0000 F   0  0  0  0  0  0  0  0  0  0  0  0
    4.6471    3.9510    0.0000 F   0  0  0  0  0  0  0  0  0  0  0  0
    5.1962    6.0000    0.0000 C   0  0  0  0  0  0  0  0  0  0  0  0
    5.9462    4.7010    0.0000 F   0  0  0  0  0  0  0  0  0  0  0  0
    4.4462    7.2990    0.0000 F   0  0  0  0  0  0  0  0  0  0  0  0
    6.4952    6.7500    0.0000 C   0  0  0  0  0  0  0  0  0  0  0  0
    5.7452    8.0490    0.0000 F   0  0  0  0  0  0  0  0  0  0  0  0
    7.2452    5.4510    0.0000 F   0  0  0  0  0  0  0  0  0  0  0  0
    7.7942    7.5000    0.0000 C   0  0  0  0  0  0  0  0  0  0  0  0
    9.0933    8.2500    0.0000 F   0  0  0  0  0  0  0  0  0  0  0  0
    8.5442    6.2010    0.0000 F   0  0  0  0  0  0  0  0  0  0  0  0
    7.0442    8.7990    0.0000 F   0  0  0  0  0  0  0  0  0  0  0  0
  1  2  1  0
  2  3  1  0
  3  4  1  0
  4  5  1  0
  5  6  1  0
  6  7  1  0
  7  8  1  0
  8  9  1  0
  8 10  1  0
  8 11  1  0
 11 12  1  0
 11 13  1  0
 11 14  1  0
 14 15  1  0
 14 16  1  0
 14 17  1  0
 17 18  1  0
 17 19  1  0
 17 20  1  0
  3 21  1  0
 21 22  1  0
 22 23  1  0
 23 24  1  0
 24 25  1  0
 24 26  1  0
 24 27  1  0
 27 28  1  0
 27 29  1  0
 27 30  1  0
 30 31  1  0
 30 32  1  0
 30 33  1  0
 33 34  1  0
 33 35  1  0
 33 36  1  0
M  END
$$$$

     RDKit          2D

 15 14  0  0  0  0  0  0  0  0999 V2000
    2.5981   -0.0000    0.0000 N   0  0  0  0  0  0  0  0  0  0  0  0
    1.2990    0.7500    0.0000 C   0  0  0  0  0  0  0  0  0  0  0  0
    1.2990    2.2500    0.0000 O   0  0  0  0  0  0  0  0  0  0  0  0
    0.0000    0.0000    0.0000 C   0  0  0  0  0  0  0  0  0  0  0  0
   -1.2990    0.7500    0.0000 C   0  0  0  0  0  0  0  0  0  0  0  0
   -2.5981    0.0000    0.0000 S   0  0  0  0  0  0  0  0  0  0  0  0
   -3.8971    0.7500    0.0000 C   0  0  0  0  0  0  0  0  0  0  0  0
   -5.1962    0.0000    0.0000 C   0  0  0  0  0  0  0  0  0  0  0  0
   -6.4952    0.7500    0.0000 C   0  0  0  0  0  0  0  0  0  0  0  0
   -7.2452   -0.5490    0.0000 F   0  0  0  0  0  0  0  0  0  0  0  0
   -5.7452    2.0490    0.0000 F   0  0  0  0  0  0  0  0  0  0  0  0
   -7.7942    1.5000    0.0000 C   0  0  0  0  0  0  0  0  0  0  0  0
   -9.0933    2.2500    0.0000 F   0  0  0  0  0  0  0  0  0  0  0  0
   -7.0442    2.7990    0.0000 F   0  0  0  0  0  0  0  0  0  0  0  0
   -8.5442    0.2010    0.0000 F   0  0  0  0  0  0  0  0  0  0  0  0
  1  2  1  0
  2  3  2  0
  2  4  1  0
  4  5  1  0
  5  6  1  0
  6  7  1  0
  7  8  1  0
  8  9  1  0
  9 10  1  0
  9 11  1  0
  9 12  1  0
 12 13  1  0
 12 14  1  0
 12 15  1  0
M  END
$$$$

     RDKit          2D

 35 34  0  0  0  0  0  0  0  0999 V2000
    0.0000    0.0000    0.0000 C   0  0  0  0  0  0  0  0  0  0  0  0
    1.2990    0.7500    0.0000 C   0  0  0  0  0  0  0  0  0  0  0  0
    2.5981   -0.0000    0.0000 N   0  0  0  0  0  0  0  0  0  0  0  0
    3.8971    0.7500    0.0000 C   0  0  0  0  0  0  0  0  0  0  0  0
    5.1962   -0.0000    0.0000 C   0  0  0  0  0  0  0  0  0  0  0  0
    6.4952    0.7500    0.0000 O   0  0  0  0  0  0  0  0  0  0  0  0
    7.7942   -0.0000    0.0000 C   0  0  0  0  0  0  0  0  0  0  0  0
    9.0933    0.7500    0.0000 C   0  0  0  0  0  0  0  0  0  0  0  0
   10.3923   -0.0000    0.0000 O   0  0  0  0  0  0  0  0  0  0  0  0
   11.6913    0.7500    0.0000 C   0  0  0  0  0  0  0  0  0  0  0  0
    2.5981   -1.5000    0.0000 S   0  0  0  0  0  0  0  0  0  0  0  0
    1.8069   -1.4028    0.0000 O   0  0  0  0  0  0  0  0  0  0  0  0
    4.0981   -1.5000    0.0000 O   0  0  0  0  0  0  0  0  0  0  0  0
    2.5981   -3.0000    0.0000 C   0  0  0  0  0  0  0  0  0  0  0  0
    4.0981   -3.0000    0.0000 F   0  0  0  0  0  0  0  0  0  0  0  0
    2.5981   -4.5000    0.0000 F   0  0  0  0  0  0  0  0  0  0  0  0
    1.0981   -3.0000    0.0000 C   0  0  0  0  0  0  0  0  0  0  0  0
    0.9901   -2.1209    0.0000 F   0  0  0  0  0  0  0  0  0  0  0  0
    1.0981   -4.5000    0.0000 F   0  0  0  0  0  0  0  0  0  0  0  0
   -0.4019   -3.0000    0.0000 C   0  0  0  0  0  0  0  0  0  0  0  0
   -0.4019   -1.5000    0.0000 F   0  0  0  0  0  0  0  0  0  0  0  0
   -0.4019   -4.5000    0.0000 F   0  0  0  0  0  0  0  0  0  0  0  0
   -1.9019   -3.0000    0.0000 C   0  0  0  0  0  0  0  0  0  0  0  0
   -1.9019   -4.5000    0.0000 F   0  0  0  0  0  0  0  0  0  0  0  0
   -1.9019   -1.5000    0.0000 F   0  0  0  0  0  0  0  0  0  0  0  0
   -3.4019   -3.0000    0.0000 C   0  0  0  0  0  0  0  0  0  0  0  0
   -3.4019   -4.5000    0.0000 F   0  0  0  0  0  0  0  0  0  0  0  0
   -3.4019   -1.5000    0.0000 F   0  0  0  0  0  0  0  0  0  0  0  0
   -4.9019   -3.0000    0.0000 C   0  0  0  0  0  0  0  0  0  0  0  0
   -4.9019   -1.5000    0.0000 F   0  0  0  0  0  0  0  0  0  0  0  0
   -4.9019   -4.5000    0.0000 F   0  0  0  0  0  0  0  0  0  0  0  0
   -6.4019   -3.0000    0.0000 C   0  0  0  0  0  0  0  0  0  0  0  0
   -7.9019   -3.0000    0.0000 F   0  0  0  0  0  0  0  0  0  0  0  0
   -6.4019   -4.5000    0.0000 F   0  0  0  0  0  0  0  0  0  0  0  0
   -6.4019   -1.5000    0.0000 F   0  0  0  0  0  0  0  0  0  0  0  0
  1  2  1  0
  2  3  1  0
  3  4  1  0
  4  5  1  0
  5  6  1  0
  6  7  1  0
  7  8  1  0
  8  9  1  0
  9 10  1  0
  3 11  1  0
 11 12  2  0
 11 13  2  0
 11 14  1  0
 14 15  1  0
 14 16  1  0
 14 17  1  0
 17 18  1  0
 17 19  1  0
 17 20  1  0
 20 21  1  0
 20 22  1  0
 20 23  1  0
 23 24  1  0
 23 25  1  0
 23 26  1  0
 26 27  1  0
 26 28  1  0
 26 29  1  0
 29 30  1  0
 29 31  1  0
 29 32  1  0
 32 33  1  0
 32 34  1  0
 32 35  1  0
M  END
$$$$

     RDKit          2D

 28 27  0  0  0  0  0  0  0  0999 V2000
    0.0000    0.0000    0.0000 C   0  0  0  0  0  0  0  0  0  0  0  0
    1.2990    0.7500    0.0000 C   0  0  0  0  0  0  0  0  0  0  0  0
    2.5981   -0.0000    0.0000 N   0  0  0  0  0  0  0  0  0  0  0  0
    3.8971    0.7500    0.0000 C   0  0  0  0  0  0  0  0  0  0  0  0
    5.1962   -0.0000    0.0000 C   0  0  0  0  0  0  0  0  0  0  0  0
    6.4952    0.7500    0.0000 O   0  0  0  0  0  0  0  0  0  0  0  0
    7.7942   -0.0000    0.0000 C   0  0  0  0  0  0  0  0  0  0  0  0
    9.0933    0.7500    0.0000 C   0  0  0  0  0  0  0  0  0  0  0  0
   10.3923   -0.0000    0.0000 O   0  0  0  0  0  0  0  0  0  0  0  0
    2.5981   -1.5000    0.0000 S   0  0  0  0  0  0  0  0  0  0  0  0
    1.8069   -1.4028    0.0000 O   0  0  0  0  0  0  0  0  0  0  0  0
    4.0981   -1.5000    0.0000 O   0  0  0  0  0  0  0  0  0  0  0  0
    2.5981   -3.0000    0.0000 C   0  0  0  0  0  0  0  0  0  0  0  0
    4.0981   -3.0000    0.0000 F   0  0  0  0  0  0  0  0  0  0  0  0
    2.5981   -4.5000    0.0000 F   0  0  0  0  0  0  0  0  0  0  0  0
    1.0981   -3.0000    0.0000 C   0  0  0  0  0  0  0  0  0  0  0  0
    0.9901   -2.1209    0.0000 F   0  0  0  0  0  0  0  0  0  0  0  0
    1.0981   -4.5000    0.0000 F   0  0  0  0  0  0  0  0  0  0  0  0
   -0.4019   -3.0000    0.0000 C   0  0  0  0  0  0  0  0  0  0  0  0
   -0.4019   -1.5000    0.0000 F   0  0  0  0  0  0  0  0  0  0  0  0
   -0.4019   -4.5000    0.0000 F   0  0  0  0  0  0  0  0  0  0  0  0
   -1.9019   -3.0000    0.0000 C   0  0  0  0  0  0  0  0  0  0  0  0
   -1.9019   -1.5000    0.0000 F   0  0  0  0  0  0  0  0  0  0  0  0
   -1.9019   -4.5000    0.0000 F   0  0  0  0  0  0  0  0  0  0  0  0
   -3.4019   -3.0000    0.0000 C   0  0  0  0  0  0  0  0  0  0  0  0
   -4.9019   -3.0000    0.0000 F   0  0  0  0  0  0  0  0  0  0  0  0
   -3.4019   -4.5000    0.0000 F   0  0  0  0  0  0  0  0  0  0  0  0
   -3.4019   -1.5000    0.0000 F   0  0  0  0  0  0  0  0  0  0  0  0
  1  2  1  0
  2  3  1  0
  3  4  1  0
  4  5  1  0
  5  6  1  0
  6  7  1  0
  7  8  1  0
  8  9  1  0
  3 10  1  0
 10 11  2  0
 10 12  2  0
 10 13  1  0
 13 14  1  0
 13 15  1  0
 13 16  1  0
 16 17  1  0
 16 18  1  0
 16 19  1  0
 19 20  1  0
 19 21  1  0
 19 22  1  0
 22 23  1  0
 22 24  1  0
 22 25  1  0
 25 26  1  0
 25 27  1  0
 25 28  1  0
M  END
$$$$

     RDKit          2D

 13 11  0  0  0  0  0  0  0  0999 V2000
   10.0933    2.2500    0.0000 O   0  0  0  0  0  0  0  0  0  0  0  0
   10.0933    0.7500    0.0000 C   0  0  0  0  0  0  0  0  0  0  0  0
   11.3923   -0.0000    0.0000 O   0  0  0  0  0  0  0  0  0  0  0  0
    8.7942    0.0000    0.0000 C   0  0  0  0  0  0  0  0  0  0  0  0
    7.4952    0.7500    0.0000 C   0  0  0  0  0  0  0  0  0  0  0  0
    6.1962    0.0000    0.0000 S   0  0  0  0  0  0  0  0  0  0  0  0
    4.8971    0.7500    0.0000 C   0  0  0  0  0  0  0  0  0  0  0  0
    3.5981    0.0000    0.0000 C   0  0  0  0  0  0  0  0  0  0  0  0
    2.2990    0.7500    0.0000 C   0  0  0  0  0  0  0  0  0  0  0  0
    1.0000    1.5000    0.0000 F   0  0  0  0  0  0  0  0  0  0  0  0
    1.5490   -0.5490    0.0000 F   0  0  0  0  0  0  0  0  0  0  0  0
    3.0490    2.0490    0.0000 F   0  0  0  0  0  0  0  0  0  0  0  0
    0.0000    0.0000    0.0000 Li  0  0  0  0  0 15  0  0  0  0  0  0
  1  2  2  0
  2  3  1  0
  2  4  1  0
  4  5  1  0
  5  6  1  0
  6  7  1  0
  7  8  1  0
  8  9  1  0
  9 10  1  0
  9 11  1  0
  9 12  1  0
M  CHG  2   3  -1  13   1
M  END
$$$$

     RDKit          2D

 20 16  0  0  0  0  0  0  0  0999 V2000
    0.0000    0.0000    0.0000 R   0  0  0  0  0  0  0  0  0  0  0  0
    1.2990    0.7500    0.0000 F   0  0  0  0  0  0  0  0  0  0  0  0
    0.0000    1.7500    0.0000 R   0  0  0  0  0  0  0  0  0  0  0  0
    1.2990    2.5000    0.0000 F   0  0  0  0  0  0  0  0  0  0  0  0
    2.2990    0.0000    0.0000 R   0  0  0  0  0  0  0  0  0  0  0  0
    3.5981    0.7500    0.0000 I   0  0  0  0  0  0  0  0  0  0  0  0
   -1.2990    5.7500    0.0000 F   0  0  0  0  0  0  0  0  0  0  0  0
    0.0000    5.0000    0.0000 C   0  0  0  0  0  0  0  0  0  0  0  0
   -0.0000    3.5000    0.0000 F   0  0  0  0  0  0  0  0  0  0  0  0
    1.2990    5.7500    0.0000 C   0  0  0  0  0  0  0  0  0  0  0  0
    1.2990    7.2500    0.0000 F   0  0  0  0  0  0  0  0  0  0  0  0
    2.5981    5.0000    0.0000 C   0  0  0  0  0  0  0  0  0  0  0  0
    2.5981    3.5000    0.0000 F   0  0  0  0  0  0  0  0  0  0  0  0
    3.8971    5.7500    0.0000 C   0  0  0  0  0  0  0  0  0  0  0  0
    4.6471    4.4510    0.0000 F   0  0  0  0  0  0  0  0  0  0  0  0
    3.1471    7.0490    0.0000 F   0  0  0  0  0  0  0  0  0  0  0  0
    5.1962    6.5000    0.0000 C   0  0  0  0  0  0  0  0  0  0  0  0
    6.4952    7.2500    0.0000 F   0  0  0  0  0  0  0  0  0  0  0  0
    4.4462    7.7990    0.0000 F   0  0  0  0  0  0  0  0  0  0  0  0
    5.9462    5.2010    0.0000 F   0  0  0  0  0  0  0  0  0  0  0  0
  1  2  1  0
  3  4  1  0
  5  6  1  0
  7  8  1  0
  8  9  1  0
  8 10  1  0
 10 11  1  0
 10 12  1  0
 12 13  1  0
 12 14  1  0
 14 15  1  0
 14 16  1  0
 14 17  1  0
 17 18  1  0
 17 19  1  0
 17 20  1  0
M  END
$$$$

     RDKit          2D

 27 25  0  0  0  0  0  0  0  0999 V2000
    0.0000    3.7663    0.0000 R   0  0  0  0  0  0  0  0  0  0  0  0
    1.2990    4.5163    0.0000 C   0  0  0  0  0  0  0  0  0  0  0  0
    2.0490    3.2172    0.0000 F   0  0  0  0  0  0  0  0  0  0  0  0
    0.5490    5.8153    0.0000 F   0  0  0  0  0  0  0  0  0  0  0  0
    2.5981    5.2663    0.0000 C   0  0  0  0  0  0  0  0  0  0  0  0
    1.8481    6.5653    0.0000 F   0  0  0  0  0  0  0  0  0  0  0  0
    3.3481    3.9672    0.0000 F   0  0  0  0  0  0  0  0  0  0  0  0
    3.8971    6.0163    0.0000 C   0  0  0  0  0  0  0  0  0  0  0  0
    4.6471    4.7172    0.0000 F   0  0  0  0  0  0  0  0  0  0  0  0
    3.1471    7.3153    0.0000 F   0  0  0  0  0  0  0  0  0  0  0  0
    5.1962    6.7663    0.0000 C   0  0  0  0  0  0  0  0  0  0  0  0
    6.4952    7.5163    0.0000 F   0  0  0  0  0  0  0  0  0  0  0  0
    4.4462    8.0653    0.0000 F   0  0  0  0  0  0  0  0  0  0  0  0
    5.9462    5.4672    0.0000 F   0  0  0  0  0  0  0  0  0  0  0  0
    3.7760    0.0000    0.0000 R   0  0  0  0  0  0  0  0  0  0  0  0
    5.0750    0.7500    0.0000 F   0  0  0  0  0  0  0  0  0  0  0  0
    2.7760    0.0000    0.0000 F   0  0  0  0  0  0  0  0  0  0  0  0
    1.2760    0.0000    0.0000 C   0  0  0  0  0  0  0  0  0  0  0  0
    0.3943    1.2135    0.0000 O   0  0  0  0  0  0  0  0  0  0  0  0
   -1.0323    0.7500    0.0000 C   0  0  0  0  0  0  0  0  0  0  0  0
   -2.5241    0.5932    0.0000 F   0  0  0  0  0  0  0  0  0  0  0  0
   -1.3442    2.2172    0.0000 F   0  0  0  0  0  0  0  0  0  0  0  0
   -1.0323   -0.7500    0.0000 C   0  0  0  0  0  0  0  0  0  0  0  0
   -1.3442   -2.2172    0.0000 F   0  0  0  0  0  0  0  0  0  0  0  0
   -2.5241   -0.5932    0.0000 F   0  0  0  0  0  0  0  0  0  0  0  0
    0.3943   -1.2135    0.0000 C   0  0  0  0  0  0  0  0  0  0  0  0
    0.8578   -2.6401    0.0000 F   0  0  0  0  0  0  0  0  0  0  0  0
  1  2  1  0
  2  3  1  0
  2  4  1  0
  2  5  1  0
  5  6  1  0
  5  7  1  0
  5  8  1  0
  8  9  1  0
  8 10  1  0
  8 11  1  0
 11 12  1  0
 11 13  1  0
 11 14  1  0
 15 16  1  0
 17 18  1  0
 18 19  1  0
 19 20  1  0
 20 21  1  0
 20 22  1  0
 20 23  1  0
 23 24  1  0
 23 25  1  0
 23 26  1  0
 26 27  1  0
 26 18  1  0
M  END
$$$$

     RDKit          2D

 32 31  0  0  0  0  0  0  0  0999 V2000
    0.0000    0.0000    0.0000 C   0  0  0  0  0  0  0  0  0  0  0  0
    1.2990    0.7500    0.0000 C   0  0  0  0  0  0  0  0  0  0  0  0
    2.5981   -0.0000    0.0000 C   0  0  0  0  0  0  0  0  0  0  0  0
    2.5981   -1.5000    0.0000 O   0  0  0  0  0  0  0  0  0  0  0  0
    3.8971    0.7500    0.0000 O   0  0  0  0  0  0  0  0  0  0  0  0
    5.1962   -0.0000    0.0000 C   0  0  0  0  0  0  0  0  0  0  0  0
    6.4952    0.7500    0.0000 C   0  0  0  0  0  0  0  0  0  0  0  0
    7.7942   -0.0000    0.0000 O   0  0  0  0  0  0  0  0  0  0  0  0
    9.0933    0.7500    0.0000 C   0  0  0  0  0  0  0  0  0  0  0  0
    9.0933    2.2500    0.0000 O   0  0  0  0  0  0  0  0  0  0  0  0
   10.3923   -0.0000    0.0000 C   0  0  0  0  0  0  0  0  0  0  0  0
   11.1423    1.2990    0.0000 F   0  0  0  0  0  0  0  0  0  0  0  0
    9.6423   -1.2990    0.0000 F   0  0  0  0  0  0  0  0  0  0  0  0
   11.6913   -0.7500    0.0000 C   0  0  0  0  0  0  0  0  0  0  0  0
   10.9413   -2.0490    0.0000 F   0  0  0  0  0  0  0  0  0  0  0  0
   12.4413    0.5490    0.0000 F   0  0  0  0  0  0  0  0  0  0  0  0
   12.9904   -1.5000    0.0000 C   0  0  0  0  0  0  0  0  0  0  0  0
   13.7404   -0.2010    0.0000 F   0  0  0  0  0  0  0  0  0  0  0  0
   12.2404   -2.7990    0.0000 F   0  0  0  0  0  0  0  0  0  0  0  0
   14.2894   -2.2500    0.0000 C   0  0  0  0  0  0  0  0  0  0  0  0
   13.5394   -3.5490    0.0000 F   0  0  0  0  0  0  0  0  0  0  0  0
   15.0394   -0.9510    0.0000 F   0  0  0  0  0  0  0  0  0  0  0  0
   15.5885   -3.0000    0.0000 C   0  0  0  0  0  0  0  0  0  0  0  0
   16.3385   -1.7010    0.0000 F   0  0  0  0  0  0  0  0  0  0  0  0
   14.8385   -4.2990    0.0000 F   0  0  0  0  0  0  0  0  0  0  0  0
   16.8875   -3.7500    0.0000 C   0  0  0  0  0  0  0  0  0  0  0  0
   16.1375   -5.0490    0.0000 F   0  0  0  0  0  0  0  0  0  0  0  0
   17.6375   -2.4510    0.0000 F   0  0  0  0  0  0  0  0  0  0  0  0
   18.1865   -4.5000    0.0000 C   0  0  0  0  0  0  0  0  0  0  0  0
   19.4856   -5.2500    0.0000 F   0  0  0  0  0  0  0  0  0  0  0  0
   18.9365   -3.2010    0.0000 F   0  0  0  0  0  0  0  0  0  0  0  0
   17.4365   -5.7990    0.0000 F   0  0  0  0  0  0  0  0  0  0  0  0
  1  2  2  0
  2  3  1  0
  3  4  2  0
  3  5  1  0
  5  6  1  0
  6  7  1  0
  7  8  1  0
  8  9  1  0
  9 10  2  0
  9 11  1  0
 11 12  1  0
 11 13  1  0
 11 14  1  0
 14 15  1  0
 14 16  1  0
 14 17  1  0
 17 18  1  0
 17 19  1  0
 17 20  1  0
 20 21  1  0
 20 22  1  0
 20 23  1  0
 23 24  1  0
 23 25  1  0
 23 26  1  0
 26 27  1  0
 26 28  1  0
 26 29  1  0
 29 30  1  0
 29 31  1  0
 29 32  1  0
M  END
$$$$

     RDKit          2D

 32 32  0  0  0  0  0  0  0  0999 V2000
    6.0000    0.0000    0.0000 O   0  0  0  0  0  0  0  0  0  0  0  0
    5.2500   -1.2990    0.0000 C   0  0  0  0  0  0  0  0  0  0  0  0
    3.7500   -1.2990    0.0000 O   0  0  0  0  0  0  0  0  0  0  0  0
    3.0000    0.0000    0.0000 C   0  0  0  0  0  0  0  0  0  0  0  0
    1.5000    0.0000    0.0000 C   0  0  0  0  0  0  0  0  0  0  0  0
    0.7500   -1.2990    0.0000 C   0  0  0  0  0  0  0  0  0  0  0  0
   -0.7500   -1.2990    0.0000 C   0  0  0  0  0  0  0  0  0  0  0  0
   -1.5000    0.0000    0.0000 C   0  0  0  0  0  0  0  0  0  0  0  0
   -0.7500    1.2990    0.0000 C   0  0  0  0  0  0  0  0  0  0  0  0
    0.7500    1.2990    0.0000 C   0  0  0  0  0  0  0  0  0  0  0  0
    6.0000   -2.5981    0.0000 C   0  0  0  0  0  0  0  0  0  0  0  0
    7.2990   -1.8481    0.0000 F   0  0  0  0  0  0  0  0  0  0  0  0
    4.7010   -3.3481    0.0000 F   0  0  0  0  0  0  0  0  0  0  0  0
    6.7500   -3.8971    0.0000 C   0  0  0  0  0  0  0  0  0  0  0  0
    5.4510   -4.6471    0.0000 F   0  0  0  0  0  0  0  0  0  0  0  0
    8.0490   -3.1471    0.0000 F   0  0  0  0  0  0  0  0  0  0  0  0
    7.5000   -5.1962    0.0000 C   0  0  0  0  0  0  0  0  0  0  0  0
    8.7990   -4.4462    0.0000 F   0  0  0  0  0  0  0  0  0  0  0  0
    6.2010   -5.9462    0.0000 F   0  0  0  0  0  0  0  0  0  0  0  0
    8.2500   -6.4952    0.0000 C   0  0  0  0  0  0  0  0  0  0  0  0
    6.9510   -7.2452    0.0000 F   0  0  0  0  0  0  0  0  0  0  0  0
    9.5490   -5.7452    0.0000 F   0  0  0  0  0  0  0  0  0  0  0  0
    9.0000   -7.7942    0.0000 C   0  0  0  0  0  0  0  0  0  0  0  0
   10.2990   -7.0442    0.0000 F   0  0  0  0  0  0  0  0  0  0  0  0
    7.7010   -8.5442    0.0000 F   0  0  0  0  0  0  0  0  0  0  0  0
    9.7500   -9.0933    0.0000 C   0  0  0  0  0  0  0  0  0  0  0  0
    8.4510   -9.8433    0.0000 F   0  0  0  0  0  0  0  0  0  0  0  0
   11.0490   -8.3433    0.0000 F   0  0  0  0  0  0  0  0  0  0  0  0
   10.5000  -10.3923    0.0000 C   0  0  0  0  0  0  0  0  0  0  0  0
   11.2500  -11.6913    0.0000 F   0  0  0  0  0  0  0  0  0  0  0  0
   11.7990   -9.6423    0.0000 F   0  0  0  0  0  0  0  0  0  0  0  0
    9.2010  -11.1423    0.0000 F   0  0  0  0  0  0  0  0  0  0  0  0
  1  2  2  0
  2  3  1  0
  3  4  1  0
  4  5  1  0
  5  6  2  0
  6  7  1  0
  7  8  2  0
  8  9  1  0
  9 10  2  0
  2 11  1  0
 11 12  1  0
 11 13  1  0
 11 14  1  0
 14 15  1  0
 14 16  1  0
 14 17  1  0
 17 18  1  0
 17 19  1  0
 17 20  1  0
 20 21  1  0
 20 22  1  0
 20 23  1  0
 23 24  1  0
 23 25  1  0
 23 26  1  0
 26 27  1  0
 26 28  1  0
 26 29  1  0
 29 30  1  0
 29 31  1  0
 29 32  1  0
 10  5  1  0
M  END
$$$$

     RDKit          2D

 32 29  0  0  0  0  0  0  0  0999 V2000
    8.7942   -1.5000    0.0000 O   0  0  0  0  0  0  0  0  0  0  0  0
    8.7942    0.0000    0.0000 C   0  0  0  0  0  0  0  0  0  0  0  0
   10.0933    0.7500    0.0000 O   0  0  0  0  0  0  0  0  0  0  0  0
    7.4952    0.7500    0.0000 O   0  0  0  0  0  0  0  0  0  0  0  0
   -1.2990    0.7500    0.0000 O   0  0  0  0  0  0  0  0  0  0  0  0
    0.0000    0.0000    0.0000 C   0  0  0  0  0  0  0  0  0  0  0  0
    1.2990    0.7500    0.0000 C   0  0  0  0  0  0  0  0  0  0  0  0
    2.0490   -0.5490    0.0000 F   0  0  0  0  0  0  0  0  0  0  0  0
    0.5490    2.0490    0.0000 F   0  0  0  0  0  0  0  0  0  0  0  0
    2.5981    1.5000    0.0000 C   0  0  0  0  0  0  0  0  0  0  0  0
    1.8481    2.7990    0.0000 F   0  0  0  0  0  0  0  0  0  0  0  0
    3.3481    0.2010    0.0000 F   0  0  0  0  0  0  0  0  0  0  0  0
    3.8971    2.2500    0.0000 C   0  0  0  0  0  0  0  0  0  0  0  0
    3.1471    3.5490    0.0000 F   0  0  0  0  0  0  0  0  0  0  0  0
    4.6471    0.9510    0.0000 F   0  0  0  0  0  0  0  0  0  0  0  0
    5.1962    3.0000    0.0000 C   0  0  0  0  0  0  0  0  0  0  0  0
    5.1962    4.5000    0.0000 F   0  0  0  0  0  0  0  0  0  0  0  0
    6.4952    2.2500    0.0000 F   0  0  0  0  0  0  0  0  0  0  0  0
   -1.2990    6.7990    0.0000 O   0  0  0  0  0  0  0  0  0  0  0  0
    0.0000    6.0490    0.0000 C   0  0  0  0  0  0  0  0  0  0  0  0
    1.2990    6.7990    0.0000 C   0  0  0  0  0  0  0  0  0  0  0  0
    2.0490    5.5000    0.0000 F   0  0  0  0  0  0  0  0  0  0  0  0
    0.5490    8.0981    0.0000 F   0  0  0  0  0  0  0  0  0  0  0  0
    2.5981    7.5490    0.0000 C   0  0  0  0  0  0  0  0  0  0  0  0
    1.8481    8.8481    0.0000 F   0  0  0  0  0  0  0  0  0  0  0  0
    3.3481    6.2500    0.0000 F   0  0  0  0  0  0  0  0  0  0  0  0
    3.8971    8.2990    0.0000 C   0  0  0  0  0  0  0  0  0  0  0  0
    3.1471    9.5981    0.0000 F   0  0  0  0  0  0  0  0  0  0  0  0
    4.6471    7.0000    0.0000 F   0  0  0  0  0  0  0  0  0  0  0  0
    5.1962    9.0490    0.0000 C   0  0  0  0  0  0  0  0  0  0  0  0
    5.1962   10.5490    0.0000 F   0  0  0  0  0  0  0  0  0  0  0  0
    6.4952    8.2990    0.0000 F   0  0  0  0  0  0  0  0  0  0  0  0
  1  2  2  0
  2  3  1  0
  2  4  1  0
  5  6  1  0
  6  7  1  0
  7  8  1  0
  7  9  1  0
  7 10  1  0
 10 11  1  0
 10 12  1  0
 10 13  1  0
 13 14  1  0
 13 15  1  0
 13 16  1  0
 16 17  1  0
 16 18  1  0
 19 20  1  0
 20 21  1  0
 21 22  1  0
 21 23  1  0
 21 24  1  0
 24 25  1  0
 24 26  1  0
 24 27  1  0
 27 28  1  0
 27 29  1  0
 27 30  1  0
 30 31  1  0
 30 32  1  0
M  END
$$$$

     RDKit          2D

 18 17  0  0  0  0  0  0  0  0999 V2000
    0.0000    0.0000    0.0000 C   0  0  0  0  0  0  0  0  0  0  0  0
    1.2990    0.7500    0.0000 C   0  0  0  0  0  0  0  0  0  0  0  0
    2.5981   -0.0000    0.0000 C   0  0  0  0  0  0  0  0  0  0  0  0
    3.8971    0.7500    0.0000 C   0  0  0  0  0  0  0  0  0  0  0  0
    5.1962   -0.0000    0.0000 C   0  0  0  0  0  0  0  0  0  0  0  0
    5.1962   -1.5000    0.0000 F   0  0  0  0  0  0  0  0  0  0  0  0
    6.4952    0.7500    0.0000 C   0  0  0  0  0  0  0  0  0  0  0  0
    7.2452   -0.5490    0.0000 F   0  0  0  0  0  0  0  0  0  0  0  0
    5.7452    2.0490    0.0000 F   0  0  0  0  0  0  0  0  0  0  0  0
    7.7942    1.5000    0.0000 C   0  0  0  0  0  0  0  0  0  0  0  0
    8.5442    0.2010    0.0000 F   0  0  0  0  0  0  0  0  0  0  0  0
    7.0442    2.7990    0.0000 F   0  0  0  0  0  0  0  0  0  0  0  0
    9.0933    2.2500    0.0000 C   0  0  0  0  0  0  0  0  0  0  0  0
    8.3433    3.5490    0.0000 F   0  0  0  0  0  0  0  0  0  0  0  0
    9.8433    0.9510    0.0000 F   0  0  0  0  0  0  0  0  0  0  0  0
   10.3923    3.0000    0.0000 C   0  0  0  0  0  0  0  0  0  0  0  0
   11.6913    2.2500    0.0000 O   0  0  0  0  0  0  0  0  0  0  0  0
   10.3923    4.5000    0.0000 O   0  0  0  0  0  0  0  0  0  0  0  0
  1  2  1  0
  2  3  1  0
  3  4  1  0
  4  5  1  0
  5  6  1  0
  5  7  1  0
  7  8  1  0
  7  9  1  0
  7 10  1  0
 10 11  1  0
 10 12  1  0
 10 13  1  0
 13 14  1  0
 13 15  1  0
 13 16  1  0
 16 17  2  0
 16 18  1  0
M  END
$$$$

     RDKit          2D

 26 26  0  0  0  0  0  0  0  0999 V2000
    3.0000   -2.5981    0.0000 F   0  0  0  0  0  0  0  0  0  0  0  0
    3.7500   -1.2990    0.0000 C   0  0  0  0  0  0  0  0  0  0  0  0
    3.0000    0.0000    0.0000 O   0  0  0  0  0  0  0  0  0  0  0  0
    1.5000    0.0000    0.0000 C   0  0  0  0  0  0  0  0  0  0  0  0
    0.7500   -1.2990    0.0000 C   0  0  0  0  0  0  0  0  0  0  0  0
   -0.7500   -1.2990    0.0000 C   0  0  0  0  0  0  0  0  0  0  0  0
   -1.5000    0.0000    0.0000 C   0  0  0  0  0  0  0  0  0  0  0  0
   -3.0000    0.0000    0.0000 C   0  0  0  0  0  0  0  0  0  0  0  0
   -3.7500    1.2990    0.0000 Cl  0  0  0  0  0  0  0  0  0  0  0  0
   -0.7500    1.2990    0.0000 C   0  0  0  0  0  0  0  0  0  0  0  0
    0.7500    1.2990    0.0000 C   0  0  0  0  0  0  0  0  0  0  0  0
    5.2500   -1.2990    0.0000 C   0  0  0  0  0  0  0  0  0  0  0  0
    6.0000    0.0000    0.0000 F   0  0  0  0  0  0  0  0  0  0  0  0
    6.0000   -2.5981    0.0000 C   0  0  0  0  0  0  0  0  0  0  0  0
    7.2990   -1.8481    0.0000 F   0  0  0  0  0  0  0  0  0  0  0  0
    4.7010   -3.3481    0.0000 F   0  0  0  0  0  0  0  0  0  0  0  0
    6.7500   -3.8971    0.0000 C   0  0  0  0  0  0  0  0  0  0  0  0
    5.4510   -4.6471    0.0000 F   0  0  0  0  0  0  0  0  0  0  0  0
    8.0490   -3.1471    0.0000 F   0  0  0  0  0  0  0  0  0  0  0  0
    7.5000   -5.1962    0.0000 C   0  0  0  0  0  0  0  0  0  0  0  0
    8.7990   -4.4462    0.0000 F   0  0  0  0  0  0  0  0  0  0  0  0
    6.2010   -5.9462    0.0000 F   0  0  0  0  0  0  0  0  0  0  0  0
    8.2500   -6.4952    0.0000 C   0  0  0  0  0  0  0  0  0  0  0  0
    9.0000   -7.7942    0.0000 F   0  0  0  0  0  0  0  0  0  0  0  0
    6.9510   -7.2452    0.0000 F   0  0  0  0  0  0  0  0  0  0  0  0
    9.5490   -5.7452    0.0000 F   0  0  0  0  0  0  0  0  0  0  0  0
  1  2  1  0
  2  3  1  0
  3  4  1  0
  4  5  2  0
  5  6  1  0
  6  7  2  0
  7  8  1  0
  8  9  1  0
  7 10  1  0
 10 11  2  0
  2 12  2  3
 12 13  1  0
 12 14  1  0
 14 15  1  0
 14 16  1  0
 14 17  1  0
 17 18  1  0
 17 19  1  0
 17 20  1  0
 20 21  1  0
 20 22  1  0
 20 23  1  0
 23 24  1  0
 23 25  1  0
 23 26  1  0
 11  4  1  0
M  END
$$$$

     RDKit          2D

 25 23  0  0  0  0  0  0  0  0999 V2000
   -1.2990    0.7500    0.0000 O   0  0  0  0  0  0  0  0  0  0  0  0
    0.0000    0.0000    0.0000 C   0  0  0  0  0  0  0  0  0  0  0  0
    1.2990    0.7500    0.0000 O   0  0  0  0  0  0  0  0  0  0  0  0
   -1.2990    7.5490    0.0000 O   0  0  0  0  0  0  0  0  0  0  0  0
    0.0000    6.7990    0.0000 C   0  0  0  0  0  0  0  0  0  0  0  0
    1.2990    7.5490    0.0000 C   0  0  0  0  0  0  0  0  0  0  0  0
    2.5981    6.7990    0.0000 C   0  0  0  0  0  0  0  0  0  0  0  0
    3.3481    8.0981    0.0000 F   0  0  0  0  0  0  0  0  0  0  0  0
    1.8481    5.5000    0.0000 F   0  0  0  0  0  0  0  0  0  0  0  0
    3.8971    6.0490    0.0000 C   0  0  0  0  0  0  0  0  0  0  0  0
    3.1471    4.7500    0.0000 F   0  0  0  0  0  0  0  0  0  0  0  0
    4.6471    7.3481    0.0000 F   0  0  0  0  0  0  0  0  0  0  0  0
    5.1962    5.2990    0.0000 C   0  0  0  0  0  0  0  0  0  0  0  0
    5.9462    6.5981    0.0000 F   0  0  0  0  0  0  0  0  0  0  0  0
    4.4462    4.0000    0.0000 F   0  0  0  0  0  0  0  0  0  0  0  0
    6.4952    4.5490    0.0000 C   0  0  0  0  0  0  0  0  0  0  0  0
    5.7452    3.2500    0.0000 F   0  0  0  0  0  0  0  0  0  0  0  0
    7.2452    5.8481    0.0000 F   0  0  0  0  0  0  0  0  0  0  0  0
    7.7942    3.7990    0.0000 C   0  0  0  0  0  0  0  0  0  0  0  0
    8.5442    5.0981    0.0000 F   0  0  0  0  0  0  0  0  0  0  0  0
    7.0442    2.5000    0.0000 F   0  0  0  0  0  0  0  0  0  0  0  0
    9.0933    3.0490    0.0000 C   0  0  0  0  0  0  0  0  0  0  0  0
   10.3923    2.2990    0.0000 F   0  0  0  0  0  0  0  0  0  0  0  0
    8.3433    1.7500    0.0000 F   0  0  0  0  0  0  0  0  0  0  0  0
    9.8433    4.3481    0.0000 F   0  0  0  0  0  0  0  0  0  0  0  0
  1  2  2  0
  2  3  1  0
  4  5  1  0
  5  6  1  0
  6  7  1  0
  7  8  1  0
  7  9  1  0
  7 10  1  0
 10 11  1  0
 10 12  1  0
 10 13  1  0
 13 14  1  0
 13 15  1  0
 13 16  1  0
 16 17  1  0
 16 18  1  0
 16 19  1  0
 19 20  1  0
 19 21  1  0
 19 22  1  0
 22 23  1  0
 22 24  1  0
 22 25  1  0
M  END
$$$$

     RDKit          2D

 23 22  0  0  0  0  0  0  0  0999 V2000
    0.0000    1.5000    0.0000 F   0  0  0  0  0  0  0  0  0  0  0  0
    0.0000    0.0000    0.0000 C   0  0  0  0  0  0  0  0  0  0  0  0
   -0.0000   -1.5000    0.0000 F   0  0  0  0  0  0  0  0  0  0  0  0
   -1.5000    0.0000    0.0000 C   0  0  0  0  0  0  0  0  0  0  0  0
   -3.0000    0.0000    0.0000 Cl  0  0  0  0  0  0  0  0  0  0  0  0
   -1.5000   -1.5000    0.0000 Cl  0  0  0  0  0  0  0  0  0  0  0  0
   -1.5000    1.5000    0.0000 Cl  0  0  0  0  0  0  0  0  0  0  0  0
    1.5000    0.0000    0.0000 C   0  0  0  0  0  0  0  0  0  0  0  0
    1.5000    1.5000    0.0000 F   0  0  0  0  0  0  0  0  0  0  0  0
    1.5000   -1.5000    0.0000 Cl  0  0  0  0  0  0  0  0  0  0  0  0
    3.0000    0.0000    0.0000 C   0  0  0  0  0  0  0  0  0  0  0  0
    3.0000    1.5000    0.0000 F   0  0  0  0  0  0  0  0  0  0  0  0
    3.0000   -1.5000    0.0000 F   0  0  0  0  0  0  0  0  0  0  0  0
    4.5000    0.0000    0.0000 C   0  0  0  0  0  0  0  0  0  0  0  0
    4.5000   -1.5000    0.0000 F   0  0  0  0  0  0  0  0  0  0  0  0
    4.5000    1.5000    0.0000 Cl  0  0  0  0  0  0  0  0  0  0  0  0
    6.0000    0.0000    0.0000 C   0  0  0  0  0  0  0  0  0  0  0  0
    6.0000    1.5000    0.0000 F   0  0  0  0  0  0  0  0  0  0  0  0
    6.0000   -1.5000    0.0000 F   0  0  0  0  0  0  0  0  0  0  0  0
    7.5000    0.0000    0.0000 C   0  0  0  0  0  0  0  0  0  0  0  0
    9.0000    0.0000    0.0000 Cl  0  0  0  0  0  0  0  0  0  0  0  0
    7.5000   -1.5000    0.0000 Cl  0  0  0  0  0  0  0  0  0  0  0  0
    7.5000    1.5000    0.0000 Cl  0  0  0  0  0  0  0  0  0  0  0  0
  1  2  1  0
  2  3  1  0
  2  4  1  0
  4  5  1  0
  4  6  1  0
  4  7  1  0
  2  8  1  0
  8  9  1  0
  8 10  1  0
  8 11  1  0
 11 12  1  0
 11 13  1  0
 11 14  1  0
 14 15  1  0
 14 16  1  0
 14 17  1  0
 17 18  1  0
 17 19  1  0
 17 20  1  0
 20 21  1  0
 20 22  1  0
 20 23  1  0
M  END
$$$$

     RDKit          2D

 31 30  0  0  0  0  0  0  0  0999 V2000
   -1.5000   -0.0000    0.0000 F   0  0  0  0  0  0  0  0  0  0  0  0
    0.0000   -0.0000    0.0000 C   0  0  0  0  0  0  0  0  0  0  0  0
    0.0000    1.5000    0.0000 F   0  0  0  0  0  0  0  0  0  0  0  0
    0.0000   -1.5000    0.0000 F   0  0  0  0  0  0  0  0  0  0  0  0
    1.5000    0.0000    0.0000 C   0  0  0  0  0  0  0  0  0  0  0  0
    1.2143   -0.7442    0.0000 F   0  0  0  0  0  0  0  0  0  0  0  0
    1.5000    1.5000    0.0000 F   0  0  0  0  0  0  0  0  0  0  0  0
    3.0000    0.0000    0.0000 C   0  0  0  0  0  0  0  0  0  0  0  0
    4.5000    0.0000    0.0000 F   0  0  0  0  0  0  0  0  0  0  0  0
    3.0000    1.5000    0.0000 F   0  0  0  0  0  0  0  0  0  0  0  0
    3.0000   -1.5000    0.0000 P   0  0  0  0  0  0  0  0  0  0  0  0
    4.2990   -2.2500    0.0000 C   0  0  0  0  0  0  0  0  0  0  0  0
    5.0490   -0.9510    0.0000 F   0  0  0  0  0  0  0  0  0  0  0  0
    5.5981   -3.0000    0.0000 F   0  0  0  0  0  0  0  0  0  0  0  0
    3.5490   -3.5490    0.0000 C   0  0  0  0  0  0  0  0  0  0  0  0
    2.0499   -3.4969    0.0000 F   0  0  0  0  0  0  0  0  0  0  0  0
    4.9298   -4.1351    0.0000 F   0  0  0  0  0  0  0  0  0  0  0  0
    2.7990   -4.8481    0.0000 C   0  0  0  0  0  0  0  0  0  0  0  0
    1.8963   -6.0460    0.0000 F   0  0  0  0  0  0  0  0  0  0  0  0
    3.9970   -5.7508    0.0000 F   0  0  0  0  0  0  0  0  0  0  0  0
    1.4183   -4.2620    0.0000 F   0  0  0  0  0  0  0  0  0  0  0  0
    1.7010   -2.2500    0.0000 C   0  0  0  0  0  0  0  0  0  0  0  0
    1.2212   -1.6134    0.0000 F   0  0  0  0  0  0  0  0  0  0  0  0
    0.4019   -3.0000    0.0000 F   0  0  0  0  0  0  0  0  0  0  0  0
    2.4510   -3.5490    0.0000 C   0  0  0  0  0  0  0  0  0  0  0  0
    3.9501   -3.4969    0.0000 F   0  0  0  0  0  0  0  0  0  0  0  0
    1.0702   -4.1351    0.0000 F   0  0  0  0  0  0  0  0  0  0  0  0
    3.2010   -4.8481    0.0000 C   0  0  0  0  0  0  0  0  0  0  0  0
    4.1037   -6.0460    0.0000 F   0  0  0  0  0  0  0  0  0  0  0  0
    2.0030   -5.7508    0.0000 F   0  0  0  0  0  0  0  0  0  0  0  0
    4.5817   -4.2620    0.0000 F   0  0  0  0  0  0  0  0  0  0  0  0
  1  2  1  0
  2  3  1  0
  2  4  1  0
  2  5  1  0
  5  6  1  0
  5  7  1  0
  5  8  1  0
  8  9  1  0
  8 10  1  0
  8 11  1  0
 11 12  1  0
 12 13  1  0
 12 14  1  0
 12 15  1  0
 15 16  1  0
 15 17  1  0
 15 18  1  0
 18 19  1  0
 18 20  1  0
 18 21  1  0
 11 22  1  0
 22 23  1  0
 22 24  1  0
 22 25  1  0
 25 26  1  0
 25 27  1  0
 25 28  1  0
 28 29  1  0
 28 30  1  0
 28 31  1  0
M  END
$$$$

     RDKit          2D

 15 15  0  0  0  0  0  0  0  0999 V2000
    3.5260   -1.2990    0.0000 C   0  0  0  0  0  0  0  0  0  0  0  0
    2.7760    0.0000    0.0000 C   0  0  0  0  0  0  0  0  0  0  0  0
    3.5260    1.2990    0.0000 C   0  0  0  0  0  0  0  0  0  0  0  0
    1.2760    0.0000    0.0000 C   0  0  0  0  0  0  0  0  0  0  0  0
    0.3943    1.2135    0.0000 N   0  0  0  0  0  0  0  0  0  0  0  0
   -1.0323    0.7500    0.0000 C   0  0  0  0  0  0  0  0  0  0  0  0
   -2.2458    1.6317    0.0000 C   0  0  0  0  0  0  0  0  0  0  0  0
   -1.3641    2.8452    0.0000 F   0  0  0  0  0  0  0  0  0  0  0  0
   -3.1275    0.4182    0.0000 F   0  0  0  0  0  0  0  0  0  0  0  0
   -3.4593    2.5134    0.0000 C   0  0  0  0  0  0  0  0  0  0  0  0
   -4.8297    1.9033    0.0000 F   0  0  0  0  0  0  0  0  0  0  0  0
   -3.3025    4.0051    0.0000 F   0  0  0  0  0  0  0  0  0  0  0  0
   -1.0323   -0.7500    0.0000 O   0  0  0  0  0  0  0  0  0  0  0  0
    0.3943   -1.2135    0.0000 C   0  0  0  0  0  0  0  0  0  0  0  0
    0.8578   -2.6401    0.0000 O   0  0  0  0  0  0  0  0  0  0  0  0
  1  2  1  0
  2  3  1  0
  2  4  1  0
  4  5  2  0
  5  6  1  0
  6  7  1  0
  7  8  1  0
  7  9  1  0
  7 10  1  0
 10 11  1  0
 10 12  1  0
  6 13  1  0
 13 14  1  0
 14 15  2  0
 14  4  1  0
M  END
$$$$

     RDKit          2D

 20 19  0  0  0  0  0  0  0  0999 V2000
   -0.0000   -1.5000    0.0000 F   0  0  0  0  0  0  0  0  0  0  0  0
    0.0000    0.0000    0.0000 C   0  0  0  0  0  0  0  0  0  0  0  0
    1.2990    0.7500    0.0000 C   0  0  0  0  0  0  0  0  0  0  0  0
    1.2990    2.2500    0.0000 C   0  0  0  0  0  0  0  0  0  0  0  0
    1.2990    3.7500    0.0000 F   0  0  0  0  0  0  0  0  0  0  0  0
    0.0931    2.3981    0.0000 F   0  0  0  0  0  0  0  0  0  0  0  0
    2.7990    2.2500    0.0000 F   0  0  0  0  0  0  0  0  0  0  0  0
    2.5981   -0.0000    0.0000 C   0  0  0  0  0  0  0  0  0  0  0  0
    3.8971   -0.7500    0.0000 F   0  0  0  0  0  0  0  0  0  0  0  0
    3.3481    1.2990    0.0000 F   0  0  0  0  0  0  0  0  0  0  0  0
    1.8481   -1.2990    0.0000 F   0  0  0  0  0  0  0  0  0  0  0  0
   -1.2990    0.7500    0.0000 C   0  0  0  0  0  0  0  0  0  0  0  0
   -0.8243    1.8684    0.0000 F   0  0  0  0  0  0  0  0  0  0  0  0
   -2.0490   -0.5490    0.0000 F   0  0  0  0  0  0  0  0  0  0  0  0
   -2.5981    1.5000    0.0000 C   0  0  0  0  0  0  0  0  0  0  0  0
   -1.8481    2.7990    0.0000 F   0  0  0  0  0  0  0  0  0  0  0  0
   -3.3481    0.2010    0.0000 F   0  0  0  0  0  0  0  0  0  0  0  0
   -3.8971    2.2500    0.0000 C   0  0  0  0  0  0  0  0  0  0  0  0
   -3.8971    3.7500    0.0000 F   0  0  0  0  0  0  0  0  0  0  0  0
   -5.1962    1.5000    0.0000 F   0  0  0  0  0  0  0  0  0  0  0  0
  1  2  1  0
  2  3  2  0
  3  4  1  0
  4  5  1  0
  4  6  1  0
  4  7  1  0
  3  8  1  0
  8  9  1  0
  8 10  1  0
  8 11  1  0
  2 12  1  0
 12 13  1  0
 12 14  1  0
 12 15  1  0
 15 16  1  0
 15 17  1  0
 15 18  1  0
 18 19  1  0
 18 20  1  0
M  END
$$$$

     RDKit          2D

 14 13  0  0  0  0  0  0  0  0999 V2000
    0.0000    0.0000    0.0000 C   0  0  0  0  0  0  0  0  0  0  0  0
    1.2990    0.7500    0.0000 O   0  0  0  0  0  0  0  0  0  0  0  0
    2.5981   -0.0000    0.0000 C   0  0  0  0  0  0  0  0  0  0  0  0
    2.5981   -1.5000    0.0000 O   0  0  0  0  0  0  0  0  0  0  0  0
    3.8971    0.7500    0.0000 C   0  0  0  0  0  0  0  0  0  0  0  0
    5.1962   -0.0000    0.0000 C   0  0  0  0  0  0  0  0  0  0  0  0
    6.4952    0.7500    0.0000 C   0  0  0  0  0  0  0  0  0  0  0  0
    7.7942    1.5000    0.0000 F   0  0  0  0  0  0  0  0  0  0  0  0
    7.2452   -0.5490    0.0000 F   0  0  0  0  0  0  0  0  0  0  0  0
    5.7452    2.0490    0.0000 F   0  0  0  0  0  0  0  0  0  0  0  0
    5.1962   -1.5000    0.0000 C   0  0  0  0  0  0  0  0  0  0  0  0
    5.1962   -3.0000    0.0000 F   0  0  0  0  0  0  0  0  0  0  0  0
    6.6962   -1.5000    0.0000 F   0  0  0  0  0  0  0  0  0  0  0  0
    3.6962   -1.5000    0.0000 F   0  0  0  0  0  0  0  0  0  0  0  0
  1  2  1  0
  2  3  1  0
  3  4  2  0
  3  5  1  0
  5  6  1  0
  6  7  1  0
  7  8  1  0
  7  9  1  0
  7 10  1  0
  6 11  1  0
 11 12  1  0
 11 13  1  0
 11 14  1  0
M  END
$$$$

     RDKit          2D

 22 21  0  0  0  0  0  0  0  0999 V2000
    3.0000    2.5981    0.0000 F   0  0  0  0  0  0  0  0  0  0  0  0
    2.2500    1.2990    0.0000 C   0  0  0  0  0  0  0  0  0  0  0  0
    0.9510    2.0490    0.0000 F   0  0  0  0  0  0  0  0  0  0  0  0
    2.9838    0.9876    0.0000 F   0  0  0  0  0  0  0  0  0  0  0  0
    1.5000   -0.0000    0.0000 O   0  0  0  0  0  0  0  0  0  0  0  0
    2.2500   -1.2990    0.0000 C   0  0  0  0  0  0  0  0  0  0  0  0
    3.0000   -2.5981    0.0000 F   0  0  0  0  0  0  0  0  0  0  0  0
    3.5490   -0.5490    0.0000 C   0  0  0  0  0  0  0  0  0  0  0  0
    4.8481    0.2010    0.0000 F   0  0  0  0  0  0  0  0  0  0  0  0
    3.4244    0.2383    0.0000 F   0  0  0  0  0  0  0  0  0  0  0  0
    4.2990   -1.8481    0.0000 F   0  0  0  0  0  0  0  0  0  0  0  0
    0.9510   -2.0490    0.0000 C   0  0  0  0  0  0  0  0  0  0  0  0
    0.2010   -0.7500    0.0000 F   0  0  0  0  0  0  0  0  0  0  0  0
    1.7010   -3.3481    0.0000 O   0  0  0  0  0  0  0  0  0  0  0  0
    0.9510   -4.6471    0.0000 C   0  0  0  0  0  0  0  0  0  0  0  0
    0.2010   -5.9462    0.0000 F   0  0  0  0  0  0  0  0  0  0  0  0
    2.2500   -5.3971    0.0000 F   0  0  0  0  0  0  0  0  0  0  0  0
   -0.4298   -4.0611    0.0000 F   0  0  0  0  0  0  0  0  0  0  0  0
   -0.3481   -2.7990    0.0000 C   0  0  0  0  0  0  0  0  0  0  0  0
   -1.6471   -3.5490    0.0000 F   0  0  0  0  0  0  0  0  0  0  0  0
   -0.1135   -4.2806    0.0000 F   0  0  0  0  0  0  0  0  0  0  0  0
   -1.0981   -1.5000    0.0000 F   0  0  0  0  0  0  0  0  0  0  0  0
  1  2  1  0
  2  3  1  0
  2  4  1  0
  2  5  1  0
  5  6  1  0
  6  7  1  0
  6  8  1  0
  8  9  1  0
  8 10  1  0
  8 11  1  0
  6 12  1  0
 12 13  1  0
 12 14  1  0
 14 15  1  0
 15 16  1  0
 15 17  1  0
 15 18  1  0
 12 19  1  0
 19 20  1  0
 19 21  1  0
 19 22  1  0
M  END
$$$$

     RDKit          2D

 18 17  0  0  0  0  0  0  0  0999 V2000
    0.0000    0.0000    0.0000 C   0  0  0  0  0  0  0  0  0  0  0  0
    1.2990    0.7500    0.0000 O   0  0  0  0  0  0  0  0  0  0  0  0
    2.5981   -0.0000    0.0000 C   0  0  0  0  0  0  0  0  0  0  0  0
    2.5981   -0.8857    0.0000 O   0  0  0  0  0  0  0  0  0  0  0  0
    3.8971    0.7500    0.0000 C   0  0  0  0  0  0  0  0  0  0  0  0
    5.1962   -0.0000    0.0000 C   0  0  0  0  0  0  0  0  0  0  0  0
    6.4952   -0.7500    0.0000 C   0  0  0  0  0  0  0  0  0  0  0  0
    7.7942   -1.5000    0.0000 F   0  0  0  0  0  0  0  0  0  0  0  0
    6.1491   -1.5653    0.0000 F   0  0  0  0  0  0  0  0  0  0  0  0
    7.0283   -0.0426    0.0000 F   0  0  0  0  0  0  0  0  0  0  0  0
    5.9462    1.2990    0.0000 C   0  0  0  0  0  0  0  0  0  0  0  0
    6.6962    2.5981    0.0000 F   0  0  0  0  0  0  0  0  0  0  0  0
    6.7615    0.9530    0.0000 F   0  0  0  0  0  0  0  0  0  0  0  0
    4.6471    2.0490    0.0000 F   0  0  0  0  0  0  0  0  0  0  0  0
    4.4462   -1.2990    0.0000 C   0  0  0  0  0  0  0  0  0  0  0  0
    3.6962   -2.5981    0.0000 F   0  0  0  0  0  0  0  0  0  0  0  0
    5.1535   -1.8321    0.0000 F   0  0  0  0  0  0  0  0  0  0  0  0
    3.5947   -1.0549    0.0000 F   0  0  0  0  0  0  0  0  0  0  0  0
  1  2  1  0
  2  3  1  0
  3  4  2  0
  3  5  1  0
  5  6  1  0
  6  7  1  0
  7  8  1  0
  7  9  1  0
  7 10  1  0
  6 11  1  0
 11 12  1  0
 11 13  1  0
 11 14  1  0
  6 15  1  0
 15 16  1  0
 15 17  1  0
 15 18  1  0
M  END
$$$$

     RDKit          2D

 27 26  0  0  0  0  0  0  0  0999 V2000
    2.5981   -0.0000    0.0000 N   0  0  0  0  0  0  0  0  0  0  0  0
    1.2990    0.7500    0.0000 C   0  0  0  0  0  0  0  0  0  0  0  0
    1.2990    2.2500    0.0000 O   0  0  0  0  0  0  0  0  0  0  0  0
    0.0000    0.0000    0.0000 C   0  0  0  0  0  0  0  0  0  0  0  0
   -1.2990    0.7500    0.0000 C   0  0  0  0  0  0  0  0  0  0  0  0
   -2.5981    0.0000    0.0000 S   0  0  0  0  0  0  0  0  0  0  0  0
   -3.8971    0.7500    0.0000 C   0  0  0  0  0  0  0  0  0  0  0  0
   -5.1962    0.0000    0.0000 C   0  0  0  0  0  0  0  0  0  0  0  0
   -6.4952    0.7500    0.0000 C   0  0  0  0  0  0  0  0  0  0  0  0
   -7.2452   -0.5490    0.0000 F   0  0  0  0  0  0  0  0  0  0  0  0
   -5.7452    2.0490    0.0000 F   0  0  0  0  0  0  0  0  0  0  0  0
   -7.7942    1.5000    0.0000 C   0  0  0  0  0  0  0  0  0  0  0  0
   -7.0442    2.7990    0.0000 F   0  0  0  0  0  0  0  0  0  0  0  0
   -8.5442    0.2010    0.0000 F   0  0  0  0  0  0  0  0  0  0  0  0
   -9.0933    2.2500    0.0000 C   0  0  0  0  0  0  0  0  0  0  0  0
   -9.8433    0.9510    0.0000 F   0  0  0  0  0  0  0  0  0  0  0  0
   -8.3433    3.5490    0.0000 F   0  0  0  0  0  0  0  0  0  0  0  0
  -10.3923    3.0000    0.0000 C   0  0  0  0  0  0  0  0  0  0  0  0
   -9.6423    4.2990    0.0000 F   0  0  0  0  0  0  0  0  0  0  0  0
  -11.1423    1.7010    0.0000 F   0  0  0  0  0  0  0  0  0  0  0  0
  -11.6913    3.7500    0.0000 C   0  0  0  0  0  0  0  0  0  0  0  0
  -12.4413    2.4510    0.0000 F   0  0  0  0  0  0  0  0  0  0  0  0
  -10.9413    5.0490    0.0000 F   0  0  0  0  0  0  0  0  0  0  0  0
  -12.9904    4.5000    0.0000 C   0  0  0  0  0  0  0  0  0  0  0  0
  -14.2894    5.2500    0.0000 F   0  0  0  0  0  0  0  0  0  0  0  0
  -12.2404    5.7990    0.0000 F   0  0  0  0  0  0  0  0  0  0  0  0
  -13.7404    3.2010    0.0000 F   0  0  0  0  0  0  0  0  0  0  0  0
  1  2  1  0
  2  3  2  0
  2  4  1  0
  4  5  1  0
  5  6  1  0
  6  7  1  0
  7  8  1  0
  8  9  1  0
  9 10  1  0
  9 11  1  0
  9 12  1  0
 12 13  1  0
 12 14  1  0
 12 15  1  0
 15 16  1  0
 15 17  1  0
 15 18  1  0
 18 19  1  0
 18 20  1  0
 18 21  1  0
 21 22  1  0
 21 23  1  0
 21 24  1  0
 24 25  1  0
 24 26  1  0
 24 27  1  0
M  END
$$$$

     RDKit          2D

 26 25  0  0  0  0  0  0  0  0999 V2000
   -1.5000    0.0000    0.0000 F   0  0  0  0  0  0  0  0  0  0  0  0
    0.0000    0.0000    0.0000 C   0  0  0  0  0  0  0  0  0  0  0  0
    0.0000    1.5000    0.0000 F   0  0  0  0  0  0  0  0  0  0  0  0
   -0.0000   -1.5000    0.0000 Cl  0  0  0  0  0  0  0  0  0  0  0  0
    1.5000    0.0000    0.0000 C   0  0  0  0  0  0  0  0  0  0  0  0
    1.5000    1.5000    0.0000 F   0  0  0  0  0  0  0  0  0  0  0  0
    1.5000   -1.5000    0.0000 Cl  0  0  0  0  0  0  0  0  0  0  0  0
    3.0000    0.0000    0.0000 C   0  0  0  0  0  0  0  0  0  0  0  0
    3.0000   -1.5000    0.0000 F   0  0  0  0  0  0  0  0  0  0  0  0
    3.0000    1.5000    0.0000 F   0  0  0  0  0  0  0  0  0  0  0  0
    4.5000    0.0000    0.0000 C   0  0  0  0  0  0  0  0  0  0  0  0
    4.5000   -1.5000    0.0000 F   0  0  0  0  0  0  0  0  0  0  0  0
    4.5000    1.5000    0.0000 Cl  0  0  0  0  0  0  0  0  0  0  0  0
    6.0000    0.0000    0.0000 C   0  0  0  0  0  0  0  0  0  0  0  0
    6.0000   -1.5000    0.0000 F   0  0  0  0  0  0  0  0  0  0  0  0
    6.0000    1.5000    0.0000 Cl  0  0  0  0  0  0  0  0  0  0  0  0
    7.5000    0.0000    0.0000 C   0  0  0  0  0  0  0  0  0  0  0  0
    7.5000   -1.5000    0.0000 F   0  0  0  0  0  0  0  0  0  0  0  0
    7.5000    1.5000    0.0000 F   0  0  0  0  0  0  0  0  0  0  0  0
    9.0000    0.0000    0.0000 C   0  0  0  0  0  0  0  0  0  0  0  0
    9.0000    1.5000    0.0000 F   0  0  0  0  0  0  0  0  0  0  0  0
    9.0000   -1.5000    0.0000 Cl  0  0  0  0  0  0  0  0  0  0  0  0
   10.5000    0.0000    0.0000 C   0  0  0  0  0  0  0  0  0  0  0  0
   12.0000    0.0000    0.0000 F   0  0  0  0  0  0  0  0  0  0  0  0
   10.5000   -1.5000    0.0000 F   0  0  0  0  0  0  0  0  0  0  0  0
   10.5000    1.5000    0.0000 Cl  0  0  0  0  0  0  0  0  0  0  0  0
  1  2  1  0
  2  3  1  0
  2  4  1  0
  2  5  1  0
  5  6  1  0
  5  7  1  0
  5  8  1  0
  8  9  1  0
  8 10  1  0
  8 11  1  0
 11 12  1  0
 11 13  1  0
 11 14  1  0
 14 15  1  0
 14 16  1  0
 14 17  1  0
 17 18  1  0
 17 19  1  0
 17 20  1  0
 20 21  1  0
 20 22  1  0
 20 23  1  0
 23 24  1  0
 23 25  1  0
 23 26  1  0
M  END
$$$$

     RDKit          2D

 27 26  0  0  0  0  0  0  0  0999 V2000
   -1.2990    0.7500    0.0000 O   0  0  0  0  0  0  0  0  0  0  0  0
    0.0000    0.0000    0.0000 C   0  0  0  0  0  0  0  0  0  0  0  0
   -0.0000   -1.5000    0.0000 F   0  0  0  0  0  0  0  0  0  0  0  0
    1.2990    0.7500    0.0000 C   0  0  0  0  0  0  0  0  0  0  0  0
    1.2990    2.2500    0.0000 F   0  0  0  0  0  0  0  0  0  0  0  0
    2.5981   -0.0000    0.0000 C   0  0  0  0  0  0  0  0  0  0  0  0
    3.3481    1.2990    0.0000 F   0  0  0  0  0  0  0  0  0  0  0  0
    1.8481   -1.2990    0.0000 F   0  0  0  0  0  0  0  0  0  0  0  0
    3.8971   -0.7500    0.0000 C   0  0  0  0  0  0  0  0  0  0  0  0
    3.1471   -2.0490    0.0000 F   0  0  0  0  0  0  0  0  0  0  0  0
    4.6471    0.5490    0.0000 F   0  0  0  0  0  0  0  0  0  0  0  0
    5.1962   -1.5000    0.0000 C   0  0  0  0  0  0  0  0  0  0  0  0
    5.9462   -0.2010    0.0000 F   0  0  0  0  0  0  0  0  0  0  0  0
    4.4462   -2.7990    0.0000 F   0  0  0  0  0  0  0  0  0  0  0  0
    6.4952   -2.2500    0.0000 C   0  0  0  0  0  0  0  0  0  0  0  0
    5.7452   -3.5490    0.0000 F   0  0  0  0  0  0  0  0  0  0  0  0
    7.2452   -0.9510    0.0000 F   0  0  0  0  0  0  0  0  0  0  0  0
    7.7942   -3.0000    0.0000 C   0  0  0  0  0  0  0  0  0  0  0  0
    8.5442   -1.7010    0.0000 F   0  0  0  0  0  0  0  0  0  0  0  0
    7.0442   -4.2990    0.0000 F   0  0  0  0  0  0  0  0  0  0  0  0
    9.0933   -3.7500    0.0000 C   0  0  0  0  0  0  0  0  0  0  0  0
    8.3433   -5.0490    0.0000 F   0  0  0  0  0  0  0  0  0  0  0  0
    9.8433   -2.4510    0.0000 F   0  0  0  0  0  0  0  0  0  0  0  0
   10.3923   -4.5000    0.0000 C   0  0  0  0  0  0  0  0  0  0  0  0
   11.6913   -5.2500    0.0000 F   0  0  0  0  0  0  0  0  0  0  0  0
   11.1423   -3.2010    0.0000 F   0  0  0  0  0  0  0  0  0  0  0  0
    9.6423   -5.7990    0.0000 F   0  0  0  0  0  0  0  0  0  0  0  0
  1  2  1  0
  2  3  1  0
  2  4  2  3
  4  5  1  0
  4  6  1  0
  6  7  1  0
  6  8  1  0
  6  9  1  0
  9 10  1  0
  9 11  1  0
  9 12  1  0
 12 13  1  0
 12 14  1  0
 12 15  1  0
 15 16  1  0
 15 17  1  0
 15 18  1  0
 18 19  1  0
 18 20  1  0
 18 21  1  0
 21 22  1  0
 21 23  1  0
 21 24  1  0
 24 25  1  0
 24 26  1  0
 24 27  1  0
M  END
$$$$

     RDKit          2D

 18 17  0  0  0  0  0  0  0  0999 V2000
    2.0490   -0.5490    0.0000 F   0  0  0  0  0  0  0  0  0  0  0  0
    1.2990    0.7500    0.0000 C   0  0  0  0  0  0  0  0  0  0  0  0
    0.5490    2.0490    0.0000 F   0  0  0  0  0  0  0  0  0  0  0  0
    0.0000    0.0000    0.0000 C   0  0  0  0  0  0  0  0  0  0  0  0
   -1.2990    0.7500    0.0000 C   0  0  0  0  0  0  0  0  0  0  0  0
   -2.5981    0.0000    0.0000 Si  0  0  0  0  0  4  0  0  0  0  0  0
   -3.8971    0.7500    0.0000 C   0  0  0  0  0  0  0  0  0  0  0  0
   -5.1962    0.0000    0.0000 Cl  0  0  0  0  0  0  0  0  0  0  0  0
   -3.8971    2.2500    0.0000 Cl  0  0  0  0  0  0  0  0  0  0  0  0
    2.5981    1.5000    0.0000 C   0  0  0  0  0  0  0  0  0  0  0  0
    3.3481    0.2010    0.0000 F   0  0  0  0  0  0  0  0  0  0  0  0
    1.8481    2.7990    0.0000 F   0  0  0  0  0  0  0  0  0  0  0  0
    3.8971    2.2500    0.0000 C   0  0  0  0  0  0  0  0  0  0  0  0
    5.1962    1.5000    0.0000 C   0  0  0  0  0  0  0  0  0  0  0  0
    6.4952    2.2500    0.0000 Si  0  0  0  0  0  4  0  0  0  0  0  0
    7.7942    1.5000    0.0000 C   0  0  0  0  0  0  0  0  0  0  0  0
    9.0933    2.2500    0.0000 Cl  0  0  0  0  0  0  0  0  0  0  0  0
    7.7942    0.0000    0.0000 Cl  0  0  0  0  0  0  0  0  0  0  0  0
  1  2  1  0
  2  3  1  0
  2  4  1  0
  4  5  1  0
  5  6  1  0
  6  7  1  0
  7  8  1  0
  7  9  1  0
  2 10  1  0
 10 11  1  0
 10 12  1  0
 10 13  1  0
 13 14  1  0
 14 15  1  0
 15 16  1  0
 16 17  1  0
 16 18  1  0
M  END
$$$$

     RDKit          2D

 33 32  0  0  0  0  0  0  0  0999 V2000
    0.0000    0.0000    0.0000 C   0  0  0  0  0  0  0  0  0  0  0  0
    1.2990    0.7500    0.0000 C   0  0  0  0  0  0  0  0  0  0  0  0
    2.5981   -0.0000    0.0000 C   0  0  0  0  0  0  0  0  0  0  0  0
    1.2990    2.2500    0.0000 C   0  0  0  0  0  0  0  0  0  0  0  0
    2.5981    3.0000    0.0000 O   0  0  0  0  0  0  0  0  0  0  0  0
    0.0000    3.0000    0.0000 O   0  0  0  0  0  0  0  0  0  0  0  0
    0.0000    4.5000    0.0000 C   0  0  0  0  0  0  0  0  0  0  0  0
    1.5000    4.5000    0.0000 F   0  0  0  0  0  0  0  0  0  0  0  0
   -1.5000    4.5000    0.0000 F   0  0  0  0  0  0  0  0  0  0  0  0
    0.0000    6.0000    0.0000 C   0  0  0  0  0  0  0  0  0  0  0  0
   -1.5000    6.0000    0.0000 F   0  0  0  0  0  0  0  0  0  0  0  0
    1.5000    6.0000    0.0000 F   0  0  0  0  0  0  0  0  0  0  0  0
    0.0000    7.5000    0.0000 C   0  0  0  0  0  0  0  0  0  0  0  0
    1.5000    7.5000    0.0000 F   0  0  0  0  0  0  0  0  0  0  0  0
   -1.5000    7.5000    0.0000 F   0  0  0  0  0  0  0  0  0  0  0  0
    0.0000    9.0000    0.0000 C   0  0  0  0  0  0  0  0  0  0  0  0
   -1.5000    9.0000    0.0000 F   0  0  0  0  0  0  0  0  0  0  0  0
    1.5000    9.0000    0.0000 F   0  0  0  0  0  0  0  0  0  0  0  0
    0.0000   10.5000    0.0000 C   0  0  0  0  0  0  0  0  0  0  0  0
    1.5000   10.5000    0.0000 F   0  0  0  0  0  0  0  0  0  0  0  0
   -1.5000   10.5000    0.0000 F   0  0  0  0  0  0  0  0  0  0  0  0
    0.0000   12.0000    0.0000 C   0  0  0  0  0  0  0  0  0  0  0  0
   -1.5000   12.0000    0.0000 F   0  0  0  0  0  0  0  0  0  0  0  0
    1.5000   12.0000    0.0000 F   0  0  0  0  0  0  0  0  0  0  0  0
    0.0000   13.5000    0.0000 C   0  0  0  0  0  0  0  0  0  0  0  0
    1.5000   13.5000    0.0000 F   0  0  0  0  0  0  0  0  0  0  0  0
   -1.5000   13.5000    0.0000 F   0  0  0  0  0  0  0  0  0  0  0  0
    0.0000   15.0000    0.0000 C   0  0  0  0  0  0  0  0  0  0  0  0
    1.2990   15.7500    0.0000 C   0  0  0  0  0  0  0  0  0  0  0  0
    1.2990   17.2500    0.0000 C   0  0  0  0  0  0  0  0  0  0  0  0
    1.2990   18.7500    0.0000 F   0  0  0  0  0  0  0  0  0  0  0  0
    2.7990   17.2500    0.0000 F   0  0  0  0  0  0  0  0  0  0  0  0
   -0.2010   17.2500    0.0000 F   0  0  0  0  0  0  0  0  0  0  0  0
  1  2  2  0
  2  3  1  0
  2  4  1  0
  4  5  2  0
  4  6  1  0
  6  7  1  0
  7  8  1  0
  7  9  1  0
  7 10  1  0
 10 11  1  0
 10 12  1  0
 10 13  1  0
 13 14  1  0
 13 15  1  0
 13 16  1  0
 16 17  1  0
 16 18  1  0
 16 19  1  0
 19 20  1  0
 19 21  1  0
 19 22  1  0
 22 23  1  0
 22 24  1  0
 22 25  1  0
 25 26  1  0
 25 27  1  0
 25 28  1  0
 28 29  1  0
 29 30  1  0
 30 31  1  0
 30 32  1  0
 30 33  1  0
M  END
$$$$

     RDKit          2D

 18 17  0  0  0  0  0  0  0  0999 V2000
    0.0000    0.0000    0.0000 C   0  0  0  0  0  0  0  0  0  0  0  0
    1.2990    0.7500    0.0000 C   0  0  0  0  0  0  0  0  0  0  0  0
    2.5981   -0.0000    0.0000 O   0  0  0  0  0  0  0  0  0  0  0  0
    3.8971    0.7500    0.0000 C   0  0  0  0  0  0  0  0  0  0  0  0
    3.8971    2.2500    0.0000 O   0  0  0  0  0  0  0  0  0  0  0  0
    5.1962   -0.0000    0.0000 C   0  0  0  0  0  0  0  0  0  0  0  0
    5.9462    1.2990    0.0000 F   0  0  0  0  0  0  0  0  0  0  0  0
    4.4462   -1.2990    0.0000 F   0  0  0  0  0  0  0  0  0  0  0  0
    6.4952   -0.7500    0.0000 C   0  0  0  0  0  0  0  0  0  0  0  0
    5.7452   -2.0490    0.0000 F   0  0  0  0  0  0  0  0  0  0  0  0
    7.2452    0.5490    0.0000 F   0  0  0  0  0  0  0  0  0  0  0  0
    7.7942   -1.5000    0.0000 C   0  0  0  0  0  0  0  0  0  0  0  0
    7.0442   -2.7990    0.0000 F   0  0  0  0  0  0  0  0  0  0  0  0
    8.5442   -0.2010    0.0000 F   0  0  0  0  0  0  0  0  0  0  0  0
    9.0933   -2.2500    0.0000 C   0  0  0  0  0  0  0  0  0  0  0  0
   10.3923   -1.5000    0.0000 F   0  0  0  0  0  0  0  0  0  0  0  0
    9.0933   -3.7500    0.0000 C   0  0  0  0  0  0  0  0  0  0  0  0
   10.3923   -4.5000    0.0000 F   0  0  0  0  0  0  0  0  0  0  0  0
  1  2  1  0
  2  3  1  0
  3  4  1  0
  4  5  2  0
  4  6  1  0
  6  7  1  0
  6  8  1  0
  6  9  1  0
  9 10  1  0
  9 11  1  0
  9 12  1  0
 12 13  1  0
 12 14  1  0
 12 15  1  0
 15 16  1  0
 15 17  2  3
 17 18  1  0
M  END
$$$$

     RDKit          2D

 22 22  0  0  0  0  0  0  0  0999 V2000
    3.0000    0.0000    0.0000 C   0  0  0  0  0  0  0  0  0  0  0  0
    1.5000    0.0000    0.0000 C   0  0  0  0  0  0  0  0  0  0  0  0
    0.7500   -1.2990    0.0000 C   0  0  0  0  0  0  0  0  0  0  0  0
   -0.7500   -1.2990    0.0000 C   0  0  0  0  0  0  0  0  0  0  0  0
   -1.5000    0.0000    0.0000 C   0  0  0  0  0  0  0  0  0  0  0  0
   -3.0000    0.0000    0.0000 C   0  0  0  0  0  0  0  0  0  0  0  0
   -3.7500   -1.2990    0.0000 O   0  0  0  0  0  0  0  0  0  0  0  0
   -3.7500    1.2990    0.0000 C   0  0  0  0  0  0  0  0  0  0  0  0
   -5.0490    0.5490    0.0000 F   0  0  0  0  0  0  0  0  0  0  0  0
   -2.4510    2.0490    0.0000 F   0  0  0  0  0  0  0  0  0  0  0  0
   -4.5000    2.5981    0.0000 C   0  0  0  0  0  0  0  0  0  0  0  0
   -3.2010    3.3481    0.0000 F   0  0  0  0  0  0  0  0  0  0  0  0
   -5.7990    1.8481    0.0000 F   0  0  0  0  0  0  0  0  0  0  0  0
   -5.2500    3.8971    0.0000 C   0  0  0  0  0  0  0  0  0  0  0  0
   -6.5490    3.1471    0.0000 F   0  0  0  0  0  0  0  0  0  0  0  0
   -3.9510    4.6471    0.0000 F   0  0  0  0  0  0  0  0  0  0  0  0
   -6.0000    5.1962    0.0000 C   0  0  0  0  0  0  0  0  0  0  0  0
   -6.7500    6.4952    0.0000 F   0  0  0  0  0  0  0  0  0  0  0  0
   -4.7010    5.9462    0.0000 F   0  0  0  0  0  0  0  0  0  0  0  0
   -7.2990    4.4462    0.0000 F   0  0  0  0  0  0  0  0  0  0  0  0
   -0.7500    1.2990    0.0000 C   0  0  0  0  0  0  0  0  0  0  0  0
    0.7500    1.2990    0.0000 C   0  0  0  0  0  0  0  0  0  0  0  0
  1  2  1  0
  2  3  2  0
  3  4  1  0
  4  5  2  0
  5  6  1  0
  6  7  2  0
  6  8  1  0
  8  9  1  0
  8 10  1  0
  8 11  1  0
 11 12  1  0
 11 13  1  0
 11 14  1  0
 14 15  1  0
 14 16  1  0
 14 17  1  0
 17 18  1  0
 17 19  1  0
 17 20  1  0
  5 21  1  0
 21 22  2  0
 22  2  1  0
M  END
$$$$

     RDKit          2D

 26 26  0  0  0  0  0  0  0  0999 V2000
   11.2500    9.0933    0.0000 F   0  0  0  0  0  0  0  0  0  0  0  0
   12.0000    7.7942    0.0000 C   0  0  0  0  0  0  0  0  0  0  0  0
   13.5000    7.7942    0.0000 F   0  0  0  0  0  0  0  0  0  0  0  0
   11.2500    6.4952    0.0000 C   0  0  0  0  0  0  0  0  0  0  0  0
    9.9510    7.2452    0.0000 F   0  0  0  0  0  0  0  0  0  0  0  0
   12.5490    5.7452    0.0000 F   0  0  0  0  0  0  0  0  0  0  0  0
   10.5000    5.1962    0.0000 C   0  0  0  0  0  0  0  0  0  0  0  0
    9.2010    5.9462    0.0000 F   0  0  0  0  0  0  0  0  0  0  0  0
   11.7990    4.4462    0.0000 F   0  0  0  0  0  0  0  0  0  0  0  0
    9.7500    3.8971    0.0000 C   0  0  0  0  0  0  0  0  0  0  0  0
   11.0490    3.1471    0.0000 F   0  0  0  0  0  0  0  0  0  0  0  0
    8.4510    4.6471    0.0000 F   0  0  0  0  0  0  0  0  0  0  0  0
    9.0000    2.5981    0.0000 C   0  0  0  0  0  0  0  0  0  0  0  0
    7.5000    2.5981    0.0000 O   0  0  0  0  0  0  0  0  0  0  0  0
    6.7500    1.2990    0.0000 C   0  0  0  0  0  0  0  0  0  0  0  0
    5.2500    1.2990    0.0000 C   0  0  0  0  0  0  0  0  0  0  0  0
    4.5000    0.0000    0.0000 C   0  0  0  0  0  0  0  0  0  0  0  0
    3.0000    0.0000    0.0000 Si  0  0  0  0  0  4  0  0  0  0  0  0
    3.0000    1.5000    0.0000 Cl  0  0  0  0  0  0  0  0  0  0  0  0
    3.0000   -1.5000    0.0000 Cl  0  0  0  0  0  0  0  0  0  0  0  0
    1.5000    0.0000    0.0000 C   0  0  0  0  0  0  0  0  0  0  0  0
    0.7500   -1.2990    0.0000 C   0  0  0  0  0  0  0  0  0  0  0  0
   -0.7500   -1.2990    0.0000 C   0  0  0  0  0  0  0  0  0  0  0  0
   -1.5000    0.0000    0.0000 C   0  0  0  0  0  0  0  0  0  0  0  0
   -0.7500    1.2990    0.0000 C   0  0  0  0  0  0  0  0  0  0  0  0
    0.7500    1.2990    0.0000 C   0  0  0  0  0  0  0  0  0  0  0  0
  1  2  1  0
  2  3  1  0
  2  4  1  0
  4  5  1  0
  4  6  1  0
  4  7  1  0
  7  8  1  0
  7  9  1  0
  7 10  1  0
 10 11  1  0
 10 12  1  0
 10 13  1  0
 13 14  1  0
 14 15  1  0
 15 16  1  0
 16 17  1  0
 17 18  1  0
 18 19  1  0
 18 20  1  0
 18 21  1  0
 21 22  2  0
 22 23  1  0
 23 24  2  0
 24 25  1  0
 25 26  2  0
 26 21  1  0
M  END
$$$$

     RDKit          2D

 21 21  0  0  0  0  0  0  0  0999 V2000
    3.0000   -2.5981    0.0000 O   0  0  0  0  0  0  0  0  0  0  0  0
    3.7500   -1.2990    0.0000 C   0  0  0  0  0  0  0  0  0  0  0  0
    5.2500   -1.2990    0.0000 C   0  0  0  0  0  0  0  0  0  0  0  0
    6.0000   -2.5981    0.0000 O   0  0  0  0  0  0  0  0  0  0  0  0
    7.5000   -2.5981    0.0000 C   0  0  0  0  0  0  0  0  0  0  0  0
    9.0000   -2.5981    0.0000 F   0  0  0  0  0  0  0  0  0  0  0  0
    7.5000   -1.0981    0.0000 C   0  0  0  0  0  0  0  0  0  0  0  0
    7.5000    0.4019    0.0000 F   0  0  0  0  0  0  0  0  0  0  0  0
    9.0000   -1.0981    0.0000 F   0  0  0  0  0  0  0  0  0  0  0  0
    6.0446   -0.7351    0.0000 F   0  0  0  0  0  0  0  0  0  0  0  0
    7.5000   -4.0981    0.0000 C   0  0  0  0  0  0  0  0  0  0  0  0
    7.5000   -5.5981    0.0000 F   0  0  0  0  0  0  0  0  0  0  0  0
    9.0000   -4.0981    0.0000 F   0  0  0  0  0  0  0  0  0  0  0  0
    6.0000   -4.0981    0.0000 F   0  0  0  0  0  0  0  0  0  0  0  0
    3.0000    0.0000    0.0000 N   0  0  0  0  0  0  0  0  0  0  0  0
    1.5000    0.0000    0.0000 C   0  0  0  0  0  0  0  0  0  0  0  0
    0.7500   -1.2990    0.0000 C   0  0  0  0  0  0  0  0  0  0  0  0
   -0.7500   -1.2990    0.0000 C   0  0  0  0  0  0  0  0  0  0  0  0
   -1.5000    0.0000    0.0000 C   0  0  0  0  0  0  0  0  0  0  0  0
   -0.7500    1.2990    0.0000 C   0  0  0  0  0  0  0  0  0  0  0  0
    0.7500    1.2990    0.0000 C   0  0  0  0  0  0  0  0  0  0  0  0
  1  2  2  0
  2  3  1  0
  3  4  1  0
  4  5  1  0
  5  6  1  0
  5  7  1  0
  7  8  1  0
  7  9  1  0
  7 10  1  0
  5 11  1  0
 11 12  1  0
 11 13  1  0
 11 14  1  0
  2 15  1  0
 15 16  1  0
 16 17  2  0
 17 18  1  0
 18 19  2  0
 19 20  1  0
 20 21  2  0
 21 16  1  0
M  END
$$$$

     RDKit          2D

 35 35  0  0  0  0  0  0  0  0999 V2000
    3.7500   -1.2990    0.0000 O   0  0  0  0  0  0  0  0  0  0  0  0
    3.0000    0.0000    0.0000 C   0  0  0  0  0  0  0  0  0  0  0  0
    1.5000    0.0000    0.0000 C   0  0  0  0  0  0  0  0  0  0  0  0
    0.7500   -1.2990    0.0000 C   0  0  0  0  0  0  0  0  0  0  0  0
   -0.7500   -1.2990    0.0000 C   0  0  0  0  0  0  0  0  0  0  0  0
   -1.5000    0.0000    0.0000 C   0  0  0  0  0  0  0  0  0  0  0  0
   -3.0000    0.0000    0.0000 O   0  0  0  0  0  0  0  0  0  0  0  0
   -3.7500    1.2990    0.0000 C   0  0  0  0  0  0  0  0  0  0  0  0
   -3.0000    2.5981    0.0000 F   0  0  0  0  0  0  0  0  0  0  0  0
   -5.2500    1.2990    0.0000 C   0  0  0  0  0  0  0  0  0  0  0  0
   -6.0000   -0.0000    0.0000 F   0  0  0  0  0  0  0  0  0  0  0  0
   -6.0000    2.5981    0.0000 C   0  0  0  0  0  0  0  0  0  0  0  0
   -7.2990    1.8481    0.0000 F   0  0  0  0  0  0  0  0  0  0  0  0
   -4.7010    3.3481    0.0000 F   0  0  0  0  0  0  0  0  0  0  0  0
   -6.7500    3.8971    0.0000 C   0  0  0  0  0  0  0  0  0  0  0  0
   -5.4510    4.6471    0.0000 F   0  0  0  0  0  0  0  0  0  0  0  0
   -8.0490    3.1471    0.0000 F   0  0  0  0  0  0  0  0  0  0  0  0
   -7.5000    5.1962    0.0000 C   0  0  0  0  0  0  0  0  0  0  0  0
   -8.7990    4.4462    0.0000 F   0  0  0  0  0  0  0  0  0  0  0  0
   -6.2010    5.9462    0.0000 F   0  0  0  0  0  0  0  0  0  0  0  0
   -8.2500    6.4952    0.0000 C   0  0  0  0  0  0  0  0  0  0  0  0
   -6.9510    7.2452    0.0000 F   0  0  0  0  0  0  0  0  0  0  0  0
   -9.5490    5.7452    0.0000 F   0  0  0  0  0  0  0  0  0  0  0  0
   -9.0000    7.7942    0.0000 C   0  0  0  0  0  0  0  0  0  0  0  0
  -10.2990    7.0442    0.0000 F   0  0  0  0  0  0  0  0  0  0  0  0
   -7.7010    8.5442    0.0000 F   0  0  0  0  0  0  0  0  0  0  0  0
   -9.7500    9.0933    0.0000 C   0  0  0  0  0  0  0  0  0  0  0  0
   -8.4510    9.8433    0.0000 F   0  0  0  0  0  0  0  0  0  0  0  0
  -11.0490    8.3433    0.0000 F   0  0  0  0  0  0  0  0  0  0  0  0
  -10.5000   10.3923    0.0000 C   0  0  0  0  0  0  0  0  0  0  0  0
  -11.2500   11.6913    0.0000 F   0  0  0  0  0  0  0  0  0  0  0  0
  -11.7990    9.6423    0.0000 F   0  0  0  0  0  0  0  0  0  0  0  0
   -9.2010   11.1423    0.0000 F   0  0  0  0  0  0  0  0  0  0  0  0
   -0.7500    1.2990    0.0000 C   0  0  0  0  0  0  0  0  0  0  0  0
    0.7500    1.2990    0.0000 C   0  0  0  0  0  0  0  0  0  0  0  0
  1  2  1  0
  2  3  1  0
  3  4  2  0
  4  5  1  0
  5  6  2  0
  6  7  1  0
  7  8  1  0
  8  9  1  0
  8 10  2  3
 10 11  1  0
 10 12  1  0
 12 13  1  0
 12 14  1  0
 12 15  1  0
 15 16  1  0
 15 17  1  0
 15 18  1  0
 18 19  1  0
 18 20  1  0
 18 21  1  0
 21 22  1  0
 21 23  1  0
 21 24  1  0
 24 25  1  0
 24 26  1  0
 24 27  1  0
 27 28  1  0
 27 29  1  0
 27 30  1  0
 30 31  1  0
 30 32  1  0
 30 33  1  0
  6 34  1  0
 34 35  2  0
 35  3  1  0
M  END
$$$$

     RDKit          2D

 60 59  0  0  0  0  0  0  0  0999 V2000
   -1.2990    0.7500    0.0000 O   0  0  0  0  0  0  0  0  0  0  0  0
    0.0000    0.0000    0.0000 C   0  0  0  0  0  0  0  0  0  0  0  0
    1.2990    0.7500    0.0000 C   0  0  0  0  0  0  0  0  0  0  0  0
    1.2990    2.2500    0.0000 O   0  0  0  0  0  0  0  0  0  0  0  0
    2.5981   -0.0000    0.0000 C   0  0  0  0  0  0  0  0  0  0  0  0
    3.8971    0.7500    0.0000 O   0  0  0  0  0  0  0  0  0  0  0  0
    5.1962   -0.0000    0.0000 C   0  0  0  0  0  0  0  0  0  0  0  0
    6.4952    0.7500    0.0000 C   0  0  0  0  0  0  0  0  0  0  0  0
    6.4952    2.2500    0.0000 O   0  0  0  0  0  0  0  0  0  0  0  0
    7.7942   -0.0000    0.0000 C   0  0  0  0  0  0  0  0  0  0  0  0
    9.0933    0.7500    0.0000 O   0  0  0  0  0  0  0  0  0  0  0  0
   10.3923   -0.0000    0.0000 C   0  0  0  0  0  0  0  0  0  0  0  0
   11.6913    0.7500    0.0000 C   0  0  0  0  0  0  0  0  0  0  0  0
   11.6913    2.2500    0.0000 O   0  0  0  0  0  0  0  0  0  0  0  0
   12.9904   -0.0000    0.0000 C   0  0  0  0  0  0  0  0  0  0  0  0
   14.2894    0.7500    0.0000 O   0  0  0  0  0  0  0  0  0  0  0  0
   15.5885   -0.0000    0.0000 C   0  0  0  0  0  0  0  0  0  0  0  0
   16.8875    0.7500    0.0000 C   0  0  0  0  0  0  0  0  0  0  0  0
   16.8875    2.2500    0.0000 O   0  0  0  0  0  0  0  0  0  0  0  0
   18.1865   -0.0000    0.0000 C   0  0  0  0  0  0  0  0  0  0  0  0
   19.4856    0.7500    0.0000 O   0  0  0  0  0  0  0  0  0  0  0  0
   20.7846   -0.0000    0.0000 C   0  0  0  0  0  0  0  0  0  0  0  0
   22.0836    0.7500    0.0000 C   0  0  0  0  0  0  0  0  0  0  0  0
   22.0836    2.2500    0.0000 O   0  0  0  0  0  0  0  0  0  0  0  0
   23.3827   -0.0000    0.0000 C   0  0  0  0  0  0  0  0  0  0  0  0
   24.6817    0.7500    0.0000 O   0  0  0  0  0  0  0  0  0  0  0  0
   25.9808   -0.0000    0.0000 C   0  0  0  0  0  0  0  0  0  0  0  0
   27.2798    0.7500    0.0000 C   0  0  0  0  0  0  0  0  0  0  0  0
   27.2798    2.2500    0.0000 O   0  0  0  0  0  0  0  0  0  0  0  0
   28.5788   -0.0000    0.0000 C   0  0  0  0  0  0  0  0  0  0  0  0
   29.8779    0.7500    0.0000 O   0  0  0  0  0  0  0  0  0  0  0  0
   31.1769   -0.0000    0.0000 C   0  0  0  0  0  0  0  0  0  0  0  0
   32.4760    0.7500    0.0000 C   0  0  0  0  0  0  0  0  0  0  0  0
   32.4760    2.2500    0.0000 O   0  0  0  0  0  0  0  0  0  0  0  0
   33.7750   -0.0000    0.0000 C   0  0  0  0  0  0  0  0  0  0  0  0
   35.0740    0.7500    0.0000 O   0  0  0  0  0  0  0  0  0  0  0  0
   36.3731   -0.0000    0.0000 C   0  0  0  0  0  0  0  0  0  0  0  0
   37.6721    0.7500    0.0000 C   0  0  0  0  0  0  0  0  0  0  0  0
   37.6721    2.2500    0.0000 O   0  0  0  0  0  0  0  0  0  0  0  0
   38.9711   -0.0000    0.0000 C   0  0  0  0  0  0  0  0  0  0  0  0
   40.2702    0.7500    0.0000 O   0  0  0  0  0  0  0  0  0  0  0  0
   41.5692   -0.0000    0.0000 C   0  0  0  0  0  0  0  0  0  0  0  0
   42.8683    0.7500    0.0000 C   0  0  0  0  0  0  0  0  0  0  0  0
   43.6183   -0.5490    0.0000 F   0  0  0  0  0  0  0  0  0  0  0  0
   42.1183    2.0490    0.0000 F   0  0  0  0  0  0  0  0  0  0  0  0
   44.1673    1.5000    0.0000 C   0  0  0  0  0  0  0  0  0  0  0  0
   43.4173    2.7990    0.0000 F   0  0  0  0  0  0  0  0  0  0  0  0
   44.9173    0.2010    0.0000 F   0  0  0  0  0  0  0  0  0  0  0  0
   45.4663    2.2500    0.0000 C   0  0  0  0  0  0  0  0  0  0  0  0
   46.2163    0.9510    0.0000 F   0  0  0  0  0  0  0  0  0  0  0  0
   44.7163    3.5490    0.0000 F   0  0  0  0  0  0  0  0  0  0  0  0
   46.7654    3.0000    0.0000 C   0  0  0  0  0  0  0  0  0  0  0  0
   47.5154    1.7010    0.0000 F   0  0  0  0  0  0  0  0  0  0  0  0
   46.0154    4.2990    0.0000 F   0  0  0  0  0  0  0  0  0  0  0  0
   48.0644    3.7500    0.0000 C   0  0  0  0  0  0  0  0  0  0  0  0
   47.3144    5.0490    0.0000 F   0  0  0  0  0  0  0  0  0  0  0  0
   48.8144    2.4510    0.0000 F   0  0  0  0  0  0  0  0  0  0  0  0
   49.3634    4.5000    0.0000 C   0  0  0  0  0  0  0  0  0  0  0  0
   49.3634    6.0000    0.0000 F   0  0  0  0  0  0  0  0  0  0  0  0
   50.6625    3.7500    0.0000 F   0  0  0  0  0  0  0  0  0  0  0  0
  1  2  1  0
  2  3  1  0
  3  4  1  0
  3  5  1  0
  5  6  1  0
  6  7  1  0
  7  8  1  0
  8  9  1  0
  8 10  1  0
 10 11  1  0
 11 12  1  0
 12 13  1  0
 13 14  1  0
 13 15  1  0
 15 16  1  0
 16 17  1  0
 17 18  1  0
 18 19  1  0
 18 20  1  0
 20 21  1  0
 21 22  1  0
 22 23  1  0
 23 24  1  0
 23 25  1  0
 25 26  1  0
 26 27  1  0
 27 28  1  0
 28 29  1  0
 28 30  1  0
 30 31  1  0
 31 32  1  0
 32 33  1  0
 33 34  1  0
 33 35  1  0
 35 36  1  0
 36 37  1  0
 37 38  1  0
 38 39  1  0
 38 40  1  0
 40 41  1  0
 41 42  1  0
 42 43  1  0
 43 44  1  0
 43 45  1  0
 43 46  1  0
 46 47  1  0
 46 48  1  0
 46 49  1  0
 49 50  1  0
 49 51  1  0
 49 52  1  0
 52 53  1  0
 52 54  1  0
 52 55  1  0
 55 56  1  0
 55 57  1  0
 55 58  1  0
 58 59  1  0
 58 60  1  0
M  END
$$$$

     RDKit          2D

 25 27  0  0  0  0  0  0  0  0999 V2000
    3.0000   -2.5981    0.0000 O   0  0  0  0  0  0  0  0  0  0  0  0
    1.5000   -2.5981    0.0000 C   0  0  0  0  0  0  0  0  0  0  0  0
    0.7500   -1.2990    0.0000 C   0  0  0  0  0  0  0  0  0  0  0  0
    1.5000    0.0000    0.0000 C   0  0  0  0  0  0  0  0  0  0  0  0
    0.7500    1.2990    0.0000 C   0  0  0  0  0  0  0  0  0  0  0  0
   -0.7500    1.2990    0.0000 C   0  0  0  0  0  0  0  0  0  0  0  0
   -1.5000    0.0000    0.0000 C   0  0  0  0  0  0  0  0  0  0  0  0
   -0.7500   -1.2990    0.0000 C   0  0  0  0  0  0  0  0  0  0  0  0
    0.7500   -3.8971    0.0000 C   0  0  0  0  0  0  0  0  0  0  0  0
    0.7500   -5.3971    0.0000 N   0  0  0  0  0  0  0  0  0  0  0  0
    1.5000   -6.6962    0.0000 C   0  0  0  0  0  0  0  0  0  0  0  0
    0.7500   -7.9952    0.0000 C   0  0  0  0  0  0  0  0  0  0  0  0
    1.5000   -9.2942    0.0000 C   0  0  0  0  0  0  0  0  0  0  0  0
    3.0000   -9.2942    0.0000 C   0  0  0  0  0  0  0  0  0  0  0  0
    3.7500   -7.9952    0.0000 C   0  0  0  0  0  0  0  0  0  0  0  0
    3.0000   -6.6962    0.0000 C   0  0  0  0  0  0  0  0  0  0  0  0
   -0.5490   -4.6471    0.0000 C   0  0  0  0  0  0  0  0  0  0  0  0
   -1.5132   -5.7962    0.0000 C   0  0  0  0  0  0  0  0  0  0  0  0
   -2.4774   -6.9452    0.0000 F   0  0  0  0  0  0  0  0  0  0  0  0
   -2.5322   -5.1345    0.0000 F   0  0  0  0  0  0  0  0  0  0  0  0
   -0.3642   -6.7604    0.0000 F   0  0  0  0  0  0  0  0  0  0  0  0
   -1.5132   -3.4980    0.0000 C   0  0  0  0  0  0  0  0  0  0  0  0
   -2.4774   -2.3490    0.0000 F   0  0  0  0  0  0  0  0  0  0  0  0
   -0.3642   -2.5339    0.0000 F   0  0  0  0  0  0  0  0  0  0  0  0
   -2.5322   -4.1598    0.0000 F   0  0  0  0  0  0  0  0  0  0  0  0
  1  2  2  0
  2  3  1  0
  3  4  2  0
  4  5  1  0
  5  6  2  0
  6  7  1  0
  7  8  2  0
  2  9  1  0
  9 10  1  0
 10 11  1  0
 11 12  2  0
 12 13  1  0
 13 14  2  0
 14 15  1  0
 15 16  2  0
 10 17  1  0
 17 18  1  0
 18 19  1  0
 18 20  1  0
 18 21  1  0
 17 22  1  0
 22 23  1  0
 22 24  1  0
 22 25  1  0
  8  3  1  0
 17  9  1  0
 16 11  1  0
M  END
$$$$

     RDKit          2D

 39 39  0  0  0  0  0  0  0  0999 V2000
   -7.5000   -5.1962    0.0000 O   0  0  0  0  0  0  0  0  0  0  0  0
   -6.0000   -5.1962    0.0000 C   0  0  0  0  0  0  0  0  0  0  0  0
   -5.2500   -6.4952    0.0000 O   0  0  0  0  0  0  0  0  0  0  0  0
   -5.2500   -3.8971    0.0000 C   0  0  0  0  0  0  0  0  0  0  0  0
   -3.7500   -3.8971    0.0000 C   0  0  0  0  0  0  0  0  0  0  0  0
   -3.0000   -2.5981    0.0000 C   0  0  0  0  0  0  0  0  0  0  0  0
   -3.7500   -1.2990    0.0000 C   0  0  0  0  0  0  0  0  0  0  0  0
   -3.0000    0.0000    0.0000 O   0  0  0  0  0  0  0  0  0  0  0  0
   -3.7500    1.2990    0.0000 S   0  0  0  0  0  0  0  0  0  0  0  0
   -5.0490    0.5490    0.0000 O   0  0  0  0  0  0  0  0  0  0  0  0
   -3.0162    1.6105    0.0000 O   0  0  0  0  0  0  0  0  0  0  0  0
   -4.5000    2.5981    0.0000 C   0  0  0  0  0  0  0  0  0  0  0  0
   -5.7990    1.8481    0.0000 F   0  0  0  0  0  0  0  0  0  0  0  0
   -5.2500    3.8971    0.0000 F   0  0  0  0  0  0  0  0  0  0  0  0
   -3.2010    3.3481    0.0000 C   0  0  0  0  0  0  0  0  0  0  0  0
   -2.6679    2.6407    0.0000 F   0  0  0  0  0  0  0  0  0  0  0  0
   -3.9510    4.6471    0.0000 F   0  0  0  0  0  0  0  0  0  0  0  0
   -1.9019    4.0981    0.0000 C   0  0  0  0  0  0  0  0  0  0  0  0
   -1.1519    2.7990    0.0000 F   0  0  0  0  0  0  0  0  0  0  0  0
   -2.6519    5.3971    0.0000 F   0  0  0  0  0  0  0  0  0  0  0  0
   -0.6029    4.8481    0.0000 C   0  0  0  0  0  0  0  0  0  0  0  0
    0.1471    3.5490    0.0000 F   0  0  0  0  0  0  0  0  0  0  0  0
   -1.3529    6.1471    0.0000 F   0  0  0  0  0  0  0  0  0  0  0  0
    0.6962    5.5981    0.0000 C   0  0  0  0  0  0  0  0  0  0  0  0
    1.4462    4.2990    0.0000 F   0  0  0  0  0  0  0  0  0  0  0  0
   -0.0538    6.8971    0.0000 F   0  0  0  0  0  0  0  0  0  0  0  0
    1.9952    6.3481    0.0000 C   0  0  0  0  0  0  0  0  0  0  0  0
    1.2452    7.6471    0.0000 F   0  0  0  0  0  0  0  0  0  0  0  0
    2.7452    5.0490    0.0000 F   0  0  0  0  0  0  0  0  0  0  0  0
    3.2942    7.0981    0.0000 C   0  0  0  0  0  0  0  0  0  0  0  0
    4.0442    5.7990    0.0000 F   0  0  0  0  0  0  0  0  0  0  0  0
    2.5442    8.3971    0.0000 F   0  0  0  0  0  0  0  0  0  0  0  0
    4.5933    7.8481    0.0000 C   0  0  0  0  0  0  0  0  0  0  0  0
    5.8923    8.5981    0.0000 F   0  0  0  0  0  0  0  0  0  0  0  0
    3.8433    9.1471    0.0000 F   0  0  0  0  0  0  0  0  0  0  0  0
    5.3433    6.5490    0.0000 F   0  0  0  0  0  0  0  0  0  0  0  0
   -5.2500   -1.2990    0.0000 C   0  0  0  0  0  0  0  0  0  0  0  0
   -6.0000   -2.5981    0.0000 C   0  0  0  0  0  0  0  0  0  0  0  0
   -7.5000   -2.5981    0.0000 O   0  0  0  0  0  0  0  0  0  0  0  0
  1  2  2  0
  2  3  1  0
  2  4  1  0
  4  5  2  0
  5  6  1  0
  6  7  2  0
  7  8  1  0
  8  9  1  0
  9 10  2  0
  9 11  2  0
  9 12  1  0
 12 13  1  0
 12 14  1  0
 12 15  1  0
 15 16  1  0
 15 17  1  0
 15 18  1  0
 18 19  1  0
 18 20  1  0
 18 21  1  0
 21 22  1  0
 21 23  1  0
 21 24  1  0
 24 25  1  0
 24 26  1  0
 24 27  1  0
 27 28  1  0
 27 29  1  0
 27 30  1  0
 30 31  1  0
 30 32  1  0
 30 33  1  0
 33 34  1  0
 33 35  1  0
 33 36  1  0
  7 37  1  0
 37 38  2  0
 38 39  1  0
 38  4  1  0
M  END
$$$$

     RDKit          2D

 16 15  0  0  0  0  0  0  0  0999 V2000
    0.0000    0.0000    0.0000 C   0  0  0  0  0  0  0  0  0  0  0  0
    1.2990    0.7500    0.0000 P   0  0  0  0  0  0  0  0  0  0  0  0
    2.5981    1.5000    0.0000 O   0  0  0  0  0  0  0  0  0  0  0  0
    0.5490    2.0490    0.0000 S   0  0  0  0  0  0  0  0  0  0  0  0
    2.0490   -0.5490    0.0000 O   0  0  0  0  0  0  0  0  0  0  0  0
    3.5490   -0.5490    0.0000 C   0  0  0  0  0  0  0  0  0  0  0  0
    4.2990   -1.8481    0.0000 C   0  0  0  0  0  0  0  0  0  0  0  0
    5.5981   -1.0981    0.0000 F   0  0  0  0  0  0  0  0  0  0  0  0
    3.0000   -2.5981    0.0000 F   0  0  0  0  0  0  0  0  0  0  0  0
    5.0490   -3.1471    0.0000 C   0  0  0  0  0  0  0  0  0  0  0  0
    3.7500   -3.8971    0.0000 F   0  0  0  0  0  0  0  0  0  0  0  0
    6.3481   -2.3971    0.0000 F   0  0  0  0  0  0  0  0  0  0  0  0
    5.7990   -4.4462    0.0000 C   0  0  0  0  0  0  0  0  0  0  0  0
    6.5490   -5.7452    0.0000 F   0  0  0  0  0  0  0  0  0  0  0  0
    7.0981   -3.6962    0.0000 F   0  0  0  0  0  0  0  0  0  0  0  0
    4.5000   -5.1962    0.0000 F   0  0  0  0  0  0  0  0  0  0  0  0
  1  2  1  0
  2  3  1  0
  2  4  2  0
  2  5  1  0
  5  6  1  0
  6  7  1  0
  7  8  1  0
  7  9  1  0
  7 10  1  0
 10 11  1  0
 10 12  1  0
 10 13  1  0
 13 14  1  0
 13 15  1  0
 13 16  1  0
M  CHG  1   3  -1
M  END
$$$$

     RDKit          2D

 18 19  0  0  0  0  0  0  0  0999 V2000
   -1.2990   -8.8573    0.0000 F   0  0  0  0  0  0  0  0  0  0  0  0
   -0.0000   -8.1073    0.0000 C   0  0  0  0  0  0  0  0  0  0  0  0
    1.2990   -8.8573    0.0000 F   0  0  0  0  0  0  0  0  0  0  0  0
   -0.0000   -6.6073    0.0000 C   0  0  0  0  0  0  0  0  0  0  0  0
   -1.5000   -6.6073    0.0000 F   0  0  0  0  0  0  0  0  0  0  0  0
    1.5000   -6.6073    0.0000 F   0  0  0  0  0  0  0  0  0  0  0  0
   -0.0000   -5.1073    0.0000 C   0  0  0  0  0  0  0  0  0  0  0  0
   -1.5000   -5.1073    0.0000 F   0  0  0  0  0  0  0  0  0  0  0  0
    1.5000   -5.1073    0.0000 F   0  0  0  0  0  0  0  0  0  0  0  0
   -0.0000   -3.6073    0.0000 C   0  0  0  0  0  0  0  0  0  0  0  0
    1.2135   -2.7256    0.0000 N   0  0  0  0  0  0  0  0  0  0  0  0
    0.7500   -1.2990    0.0000 C   0  0  0  0  0  0  0  0  0  0  0  0
    1.5000    0.0000    0.0000 C   0  0  0  0  0  0  0  0  0  0  0  0
    0.7500    1.2990    0.0000 C   0  0  0  0  0  0  0  0  0  0  0  0
   -0.7500    1.2990    0.0000 C   0  0  0  0  0  0  0  0  0  0  0  0
   -1.5000    0.0000    0.0000 C   0  0  0  0  0  0  0  0  0  0  0  0
   -0.7500   -1.2990    0.0000 C   0  0  0  0  0  0  0  0  0  0  0  0
   -1.2135   -2.7256    0.0000 N   0  0  0  0  0  0  0  0  0  0  0  0
  1  2  1  0
  2  3  1  0
  2  4  1  0
  4  5  1  0
  4  6  1  0
  4  7  1  0
  7  8  1  0
  7  9  1  0
  7 10  1  0
 10 11  2  0
 11 12  1  0
 12 13  2  0
 13 14  1  0
 14 15  2  0
 15 16  1  0
 16 17  2  0
 17 18  1  0
 18 10  1  0
 17 12  1  0
M  END
$$$$

     RDKit          2D

 19 19  0  0  0  0  0  0  0  0999 V2000
    3.7981    1.9284    0.0000 F   0  0  0  0  0  0  0  0  0  0  0  0
    2.6491    0.9642    0.0000 C   0  0  0  0  0  0  0  0  0  0  0  0
    3.6132   -0.1849    0.0000 F   0  0  0  0  0  0  0  0  0  0  0  0
    2.2149    1.6327    0.0000 F   0  0  0  0  0  0  0  0  0  0  0  0
    1.5000    0.0000    0.0000 C   0  0  0  0  0  0  0  0  0  0  0  0
    2.6491   -0.9642    0.0000 F   0  0  0  0  0  0  0  0  0  0  0  0
    0.7500   -1.2990    0.0000 C   0  0  0  0  0  0  0  0  0  0  0  0
    2.1595   -1.8121    0.0000 F   0  0  0  0  0  0  0  0  0  0  0  0
    0.4895   -2.7762    0.0000 F   0  0  0  0  0  0  0  0  0  0  0  0
   -0.7500   -1.2990    0.0000 O   0  0  0  0  0  0  0  0  0  0  0  0
   -1.5000    0.0000    0.0000 C   0  0  0  0  0  0  0  0  0  0  0  0
   -2.6491   -0.9642    0.0000 F   0  0  0  0  0  0  0  0  0  0  0  0
   -2.6491    0.9642    0.0000 F   0  0  0  0  0  0  0  0  0  0  0  0
   -0.7500    1.2990    0.0000 C   0  0  0  0  0  0  0  0  0  0  0  0
   -2.1595    1.8121    0.0000 F   0  0  0  0  0  0  0  0  0  0  0  0
   -0.4895    2.7762    0.0000 F   0  0  0  0  0  0  0  0  0  0  0  0
    0.7500    1.2990    0.0000 C   0  0  0  0  0  0  0  0  0  0  0  0
    0.4895    2.7762    0.0000 F   0  0  0  0  0  0  0  0  0  0  0  0
    1.4603    1.6610    0.0000 F   0  0  0  0  0  0  0  0  0  0  0  0
  1  2  1  0
  2  3  1  0
  2  4  1  0
  2  5  1  0
  5  6  1  0
  5  7  1  0
  7  8  1  0
  7  9  1  0
  7 10  1  0
 10 11  1  0
 11 12  1  0
 11 13  1  0
 11 14  1  0
 14 15  1  0
 14 16  1  0
 14 17  1  0
 17 18  1  0
 17 19  1  0
 17  5  1  0
M  END
$$$$

     RDKit          2D

 16 16  0  0  0  0  0  0  0  0999 V2000
    3.7500    1.2990    0.0000 O   0  0  0  0  0  0  0  0  0  0  0  0
    3.0000    0.0000    0.0000 N   0  0  0  0  0  0  0  0  0  0  0  0
    3.7500   -1.2990    0.0000 O   0  0  0  0  0  0  0  0  0  0  0  0
    1.5000    0.0000    0.0000 C   0  0  0  0  0  0  0  0  0  0  0  0
    0.7500   -1.2990    0.0000 C   0  0  0  0  0  0  0  0  0  0  0  0
   -0.7500   -1.2990    0.0000 C   0  0  0  0  0  0  0  0  0  0  0  0
   -1.5000    0.0000    0.0000 C   0  0  0  0  0  0  0  0  0  0  0  0
   -0.7500    1.2990    0.0000 C   0  0  0  0  0  0  0  0  0  0  0  0
    0.7500    1.2990    0.0000 C   0  0  0  0  0  0  0  0  0  0  0  0
    1.5000    2.5981    0.0000 C   0  0  0  0  0  0  0  0  0  0  0  0
    2.7990    1.8481    0.0000 F   0  0  0  0  0  0  0  0  0  0  0  0
    0.2010    3.3481    0.0000 F   0  0  0  0  0  0  0  0  0  0  0  0
    2.2500    3.8971    0.0000 C   0  0  0  0  0  0  0  0  0  0  0  0
    3.0000    5.1962    0.0000 F   0  0  0  0  0  0  0  0  0  0  0  0
    0.9510    4.6471    0.0000 F   0  0  0  0  0  0  0  0  0  0  0  0
    3.5490    3.1471    0.0000 F   0  0  0  0  0  0  0  0  0  0  0  0
  1  2  2  0
  2  3  1  0
  2  4  1  0
  4  5  2  0
  5  6  1  0
  6  7  2  0
  7  8  1  0
  8  9  2  0
  9 10  1  0
 10 11  1  0
 10 12  1  0
 10 13  1  0
 13 14  1  0
 13 15  1  0
 13 16  1  0
  9  4  1  0
M  CHG  2   2   1   3  -1
M  END
$$$$

     RDKit          2D

 26 27  0  0  0  0  0  0  0  0999 V2000
    3.0000    0.0000    0.0000 O   0  0  0  0  0  0  0  0  0  0  0  0
    1.5000    0.0000    0.0000 C   0  0  0  0  0  0  0  0  0  0  0  0
    0.7500   -1.2990    0.0000 N   0  0  0  0  0  0  0  0  0  0  0  0
   -0.7500   -1.2990    0.0000 C   0  0  0  0  0  0  0  0  0  0  0  0
   -1.5000   -2.5981    0.0000 O   0  0  0  0  0  0  0  0  0  0  0  0
   -1.5000    0.0000    0.0000 N   0  0  0  0  0  0  0  0  0  0  0  0
   -3.0000    0.0000    0.0000 C   0  0  0  0  0  0  0  0  0  0  0  0
   -3.8817   -1.2135    0.0000 C   0  0  0  0  0  0  0  0  0  0  0  0
   -5.3083   -0.7500    0.0000 C   0  0  0  0  0  0  0  0  0  0  0  0
   -6.5218   -1.6317    0.0000 O   0  0  0  0  0  0  0  0  0  0  0  0
   -5.3083    0.7500    0.0000 C   0  0  0  0  0  0  0  0  0  0  0  0
   -6.5218    1.6317    0.0000 C   0  0  0  0  0  0  0  0  0  0  0  0
   -6.3650    3.1235    0.0000 O   0  0  0  0  0  0  0  0  0  0  0  0
   -3.8817    1.2135    0.0000 O   0  0  0  0  0  0  0  0  0  0  0  0
   -0.7500    1.2990    0.0000 C   0  0  0  0  0  0  0  0  0  0  0  0
    0.7500    1.2990    0.0000 C   0  0  0  0  0  0  0  0  0  0  0  0
    1.5000    2.5981    0.0000 C   0  0  0  0  0  0  0  0  0  0  0  0
    2.7990    1.8481    0.0000 O   0  0  0  0  0  0  0  0  0  0  0  0
    2.2500    3.8971    0.0000 C   0  0  0  0  0  0  0  0  0  0  0  0
    3.0000    5.1962    0.0000 F   0  0  0  0  0  0  0  0  0  0  0  0
    3.5490    3.1471    0.0000 F   0  0  0  0  0  0  0  0  0  0  0  0
    1.5426    4.4302    0.0000 F   0  0  0  0  0  0  0  0  0  0  0  0
    0.2010    3.3481    0.0000 C   0  0  0  0  0  0  0  0  0  0  0  0
   -1.0981    4.0981    0.0000 F   0  0  0  0  0  0  0  0  0  0  0  0
    0.5470    4.1634    0.0000 F   0  0  0  0  0  0  0  0  0  0  0  0
   -0.8411    2.2691    0.0000 F   0  0  0  0  0  0  0  0  0  0  0  0
  1  2  2  0
  2  3  1  0
  3  4  1  0
  4  5  2  0
  4  6  1  0
  7  6  1  1
  7  8  1  0
  8  9  1  0
  9 10  1  6
  9 11  1  0
 11 12  1  1
 12 13  1  0
 11 14  1  0
  6 15  1  0
 15 16  2  0
 16 17  1  0
 17 18  1  0
 17 19  1  0
 19 20  1  0
 19 21  1  0
 19 22  1  0
 17 23  1  0
 23 24  1  0
 23 25  1  0
 23 26  1  0
 16  2  1  0
 14  7  1  0
M  END
$$$$

     RDKit          2D

 21 20  0  0  0  0  0  0  0  0999 V2000
    0.0000    0.0000    0.0000 C   0  0  0  0  0  0  0  0  0  0  0  0
    1.2990    0.7500    0.0000 C   0  0  0  0  0  0  0  0  0  0  0  0
    2.5981   -0.0000    0.0000 C   0  0  0  0  0  0  0  0  0  0  0  0
    3.8971    0.7500    0.0000 C   0  0  0  0  0  0  0  0  0  0  0  0
    3.8971    2.2500    0.0000 F   0  0  0  0  0  0  0  0  0  0  0  0
    5.1962   -0.0000    0.0000 C   0  0  0  0  0  0  0  0  0  0  0  0
    5.9462    1.2990    0.0000 F   0  0  0  0  0  0  0  0  0  0  0  0
    4.4462   -1.2990    0.0000 F   0  0  0  0  0  0  0  0  0  0  0  0
    6.4952   -0.7500    0.0000 C   0  0  0  0  0  0  0  0  0  0  0  0
    5.7452   -2.0490    0.0000 F   0  0  0  0  0  0  0  0  0  0  0  0
    7.2452    0.5490    0.0000 F   0  0  0  0  0  0  0  0  0  0  0  0
    7.7942   -1.5000    0.0000 C   0  0  0  0  0  0  0  0  0  0  0  0
    8.5442   -0.2010    0.0000 F   0  0  0  0  0  0  0  0  0  0  0  0
    7.0442   -2.7990    0.0000 F   0  0  0  0  0  0  0  0  0  0  0  0
    9.0933   -2.2500    0.0000 C   0  0  0  0  0  0  0  0  0  0  0  0
    8.3433   -3.5490    0.0000 F   0  0  0  0  0  0  0  0  0  0  0  0
    9.8433   -0.9510    0.0000 F   0  0  0  0  0  0  0  0  0  0  0  0
   10.3923   -3.0000    0.0000 C   0  0  0  0  0  0  0  0  0  0  0  0
   11.6913   -3.7500    0.0000 F   0  0  0  0  0  0  0  0  0  0  0  0
   11.1423   -1.7010    0.0000 F   0  0  0  0  0  0  0  0  0  0  0  0
    9.6423   -4.2990    0.0000 F   0  0  0  0  0  0  0  0  0  0  0  0
  1  2  2  0
  2  3  1  0
  3  4  2  3
  4  5  1  0
  4  6  1  0
  6  7  1  0
  6  8  1  0
  6  9  1  0
  9 10  1  0
  9 11  1  0
  9 12  1  0
 12 13  1  0
 12 14  1  0
 12 15  1  0
 15 16  1  0
 15 17  1  0
 15 18  1  0
 18 19  1  0
 18 20  1  0
 18 21  1  0
M  END
$$$$

     RDKit          2D

 14 14  0  0  0  0  0  0  0  0999 V2000
    2.1213    1.0607    0.0000 C   0  0  0  0  0  0  0  0  0  0  0  0
    1.0607    0.0000    0.0000 C   0  0  0  0  0  0  0  0  0  0  0  0
    2.1213   -1.0607    0.0000 C   0  0  0  0  0  0  0  0  0  0  0  0
    1.7331   -2.5095    0.0000 O   0  0  0  0  0  0  0  0  0  0  0  0
    2.7938   -3.5702    0.0000 C   0  0  0  0  0  0  0  0  0  0  0  0
    2.4055   -5.0191    0.0000 C   0  0  0  0  0  0  0  0  0  0  0  0
    3.8544   -5.4073    0.0000 F   0  0  0  0  0  0  0  0  0  0  0  0
    0.9566   -4.6309    0.0000 F   0  0  0  0  0  0  0  0  0  0  0  0
    2.0173   -6.4680    0.0000 C   0  0  0  0  0  0  0  0  0  0  0  0
    0.5684   -6.8562    0.0000 F   0  0  0  0  0  0  0  0  0  0  0  0
    3.0780   -7.5286    0.0000 F   0  0  0  0  0  0  0  0  0  0  0  0
   -0.0000   -1.0607    0.0000 C   0  0  0  0  0  0  0  0  0  0  0  0
   -1.0607    0.0000    0.0000 O   0  0  0  0  0  0  0  0  0  0  0  0
    0.0000    1.0607    0.0000 C   0  0  0  0  0  0  0  0  0  0  0  0
  1  2  1  0
  2  3  1  0
  3  4  1  0
  4  5  1  0
  5  6  1  0
  6  7  1  0
  6  8  1  0
  6  9  1  0
  9 10  1  0
  9 11  1  0
  2 12  1  0
 12 13  1  0
 13 14  1  0
 14  2  1  0
M  END
$$$$

     RDKit          2D

 12 11  0  0  0  0  0  0  0  0999 V2000
   -1.2990    0.7500    0.0000 O   0  0  0  0  0  0  0  0  0  0  0  0
    0.0000    0.0000    0.0000 C   0  0  0  0  0  0  0  0  0  0  0  0
    1.2990    0.7500    0.0000 O   0  0  0  0  0  0  0  0  0  0  0  0
    2.5981   -0.0000    0.0000 C   0  0  0  0  0  0  0  0  0  0  0  0
    3.8971    0.7500    0.0000 C   0  0  0  0  0  0  0  0  0  0  0  0
    5.1962    1.5000    0.0000 F   0  0  0  0  0  0  0  0  0  0  0  0
    4.6471   -0.5490    0.0000 F   0  0  0  0  0  0  0  0  0  0  0  0
    3.1471    2.0490    0.0000 F   0  0  0  0  0  0  0  0  0  0  0  0
    2.5981   -1.5000    0.0000 C   0  0  0  0  0  0  0  0  0  0  0  0
    2.5981   -3.0000    0.0000 F   0  0  0  0  0  0  0  0  0  0  0  0
    4.0981   -1.5000    0.0000 F   0  0  0  0  0  0  0  0  0  0  0  0
    1.0981   -1.5000    0.0000 F   0  0  0  0  0  0  0  0  0  0  0  0
  1  2  2  0
  2  3  1  0
  3  4  1  0
  4  5  1  0
  5  6  1  0
  5  7  1  0
  5  8  1  0
  4  9  1  0
  9 10  1  0
  9 11  1  0
  9 12  1  0
M  END
$$$$

     RDKit          2D

 27 27  0  0  0  0  0  0  0  0999 V2000
    2.9577   -0.1163    0.0000 F   0  0  0  0  0  0  0  0  0  0  0  0
    1.8086    0.8479    0.0000 C   0  0  0  0  0  0  0  0  0  0  0  0
    2.0691    2.3251    0.0000 C   0  0  0  0  0  0  0  0  0  0  0  0
    3.4786    2.8381    0.0000 F   0  0  0  0  0  0  0  0  0  0  0  0
    0.9200    3.2893    0.0000 C   0  0  0  0  0  0  0  0  0  0  0  0
    1.1805    4.7665    0.0000 F   0  0  0  0  0  0  0  0  0  0  0  0
   -0.4895    2.7762    0.0000 C   0  0  0  0  0  0  0  0  0  0  0  0
   -1.2353    3.5760    0.0000 F   0  0  0  0  0  0  0  0  0  0  0  0
   -0.7500    1.2990    0.0000 C   0  0  0  0  0  0  0  0  0  0  0  0
   -1.5000   -0.0000    0.0000 F   0  0  0  0  0  0  0  0  0  0  0  0
   -2.1595    1.8121    0.0000 C   0  0  0  0  0  0  0  0  0  0  0  0
   -1.9136    2.8775    0.0000 F   0  0  0  0  0  0  0  0  0  0  0  0
   -2.6726    0.4025    0.0000 F   0  0  0  0  0  0  0  0  0  0  0  0
   -3.5691    2.3251    0.0000 C   0  0  0  0  0  0  0  0  0  0  0  0
   -3.7683    1.4621    0.0000 F   0  0  0  0  0  0  0  0  0  0  0  0
   -3.0560    3.7346    0.0000 F   0  0  0  0  0  0  0  0  0  0  0  0
   -4.9786    2.8381    0.0000 C   0  0  0  0  0  0  0  0  0  0  0  0
   -4.4656    4.2477    0.0000 F   0  0  0  0  0  0  0  0  0  0  0  0
   -6.3882    3.3512    0.0000 C   0  0  0  0  0  0  0  0  0  0  0  0
   -7.7977    3.8642    0.0000 F   0  0  0  0  0  0  0  0  0  0  0  0
   -5.8751    4.7607    0.0000 F   0  0  0  0  0  0  0  0  0  0  0  0
   -6.7903    2.5620    0.0000 F   0  0  0  0  0  0  0  0  0  0  0  0
   -5.4916    1.4286    0.0000 C   0  0  0  0  0  0  0  0  0  0  0  0
   -6.0047    0.0191    0.0000 F   0  0  0  0  0  0  0  0  0  0  0  0
   -6.3547    1.6278    0.0000 F   0  0  0  0  0  0  0  0  0  0  0  0
   -4.7025    1.0265    0.0000 F   0  0  0  0  0  0  0  0  0  0  0  0
    0.3991    0.3349    0.0000 O   0  0  0  0  0  0  0  0  0  0  0  0
  1  2  1  0
  2  3  2  0
  3  4  1  0
  3  5  1  0
  5  6  1  0
  5  7  2  0
  7  8  1  0
  7  9  1  0
  9 10  1  0
  9 11  1  0
 11 12  1  0
 11 13  1  0
 11 14  1  0
 14 15  1  0
 14 16  1  0
 14 17  1  0
 17 18  1  0
 17 19  1  0
 19 20  1  0
 19 21  1  0
 19 22  1  0
 17 23  1  0
 23 24  1  0
 23 25  1  0
 23 26  1  0
  9 27  1  0
 27  2  1  0
M  END
$$$$

     RDKit          2D

 17 16  0  0  0  0  0  0  0  0999 V2000
   -3.0000   -2.5981    0.0000 C   0  0  0  0  0  0  0  0  0  0  0  0
   -2.2500   -1.2990    0.0000 O   0  0  0  0  0  0  0  0  0  0  0  0
   -0.7500   -1.2990    0.0000 C   0  0  0  0  0  0  0  0  0  0  0  0
    0.0000   -2.5981    0.0000 O   0  0  0  0  0  0  0  0  0  0  0  0
    0.0000    0.0000    0.0000 C   0  0  0  0  0  0  0  0  0  0  0  0
   -0.7500    1.2990    0.0000 C   0  0  0  0  0  0  0  0  0  0  0  0
    1.5000    0.0000    0.0000 C   0  0  0  0  0  0  0  0  0  0  0  0
    2.2500    1.2990    0.0000 C   0  0  0  0  0  0  0  0  0  0  0  0
    3.5490    0.5490    0.0000 F   0  0  0  0  0  0  0  0  0  0  0  0
    0.9510    2.0490    0.0000 F   0  0  0  0  0  0  0  0  0  0  0  0
    3.0000    2.5981    0.0000 C   0  0  0  0  0  0  0  0  0  0  0  0
    1.7010    3.3481    0.0000 F   0  0  0  0  0  0  0  0  0  0  0  0
    4.2990    1.8481    0.0000 F   0  0  0  0  0  0  0  0  0  0  0  0
    3.7500    3.8971    0.0000 C   0  0  0  0  0  0  0  0  0  0  0  0
    4.5000    5.1962    0.0000 F   0  0  0  0  0  0  0  0  0  0  0  0
    5.0490    3.1471    0.0000 F   0  0  0  0  0  0  0  0  0  0  0  0
    2.4510    4.6471    0.0000 F   0  0  0  0  0  0  0  0  0  0  0  0
  1  2  1  0
  2  3  1  0
  3  4  2  0
  3  5  1  0
  5  6  1  0
  5  7  2  0
  7  8  1  0
  8  9  1  0
  8 10  1  0
  8 11  1  0
 11 12  1  0
 11 13  1  0
 11 14  1  0
 14 15  1  0
 14 16  1  0
 14 17  1  0
M  END
$$$$

     RDKit          2D

 35 34  0  0  0  0  0  0  0  0999 V2000
    1.2990    6.7500    0.0000 N   0  0  0  0  0  0  0  0  0  0  0  0
    1.2990    5.2500    0.0000 C   0  0  0  0  0  0  0  0  0  0  0  0
    0.0000    4.5000    0.0000 O   0  0  0  0  0  0  0  0  0  0  0  0
    2.5981    4.5000    0.0000 C   0  0  0  0  0  0  0  0  0  0  0  0
    2.5981    3.0000    0.0000 C   0  0  0  0  0  0  0  0  0  0  0  0
    3.8971    2.2500    0.0000 N   0  0  0  0  0  0  0  0  0  0  0  0
    3.8971    0.7500    0.0000 C   0  0  0  0  0  0  0  0  0  0  0  0
    5.1962    0.0000    0.0000 S   0  0  0  0  0  0  0  0  0  0  0  0
    4.7164   -0.6366    0.0000 O   0  0  0  0  0  0  0  0  0  0  0  0
    5.9462    1.2990    0.0000 O   0  0  0  0  0  0  0  0  0  0  0  0
    6.4952   -0.7500    0.0000 C   0  0  0  0  0  0  0  0  0  0  0  0
    7.2452    0.5490    0.0000 F   0  0  0  0  0  0  0  0  0  0  0  0
    7.7942   -1.5000    0.0000 F   0  0  0  0  0  0  0  0  0  0  0  0
    5.7452   -2.0490    0.0000 C   0  0  0  0  0  0  0  0  0  0  0  0
    4.9299   -1.7030    0.0000 F   0  0  0  0  0  0  0  0  0  0  0  0
    7.0442   -2.7990    0.0000 F   0  0  0  0  0  0  0  0  0  0  0  0
    4.9952   -3.3481    0.0000 C   0  0  0  0  0  0  0  0  0  0  0  0
    6.2942   -4.0981    0.0000 F   0  0  0  0  0  0  0  0  0  0  0  0
    3.6962   -2.5981    0.0000 F   0  0  0  0  0  0  0  0  0  0  0  0
    4.2452   -4.6471    0.0000 C   0  0  0  0  0  0  0  0  0  0  0  0
    2.9462   -3.8971    0.0000 F   0  0  0  0  0  0  0  0  0  0  0  0
    5.5442   -5.3971    0.0000 F   0  0  0  0  0  0  0  0  0  0  0  0
    3.4952   -5.9462    0.0000 C   0  0  0  0  0  0  0  0  0  0  0  0
    2.1962   -5.1962    0.0000 F   0  0  0  0  0  0  0  0  0  0  0  0
    4.7942   -6.6962    0.0000 F   0  0  0  0  0  0  0  0  0  0  0  0
    2.7452   -7.2452    0.0000 C   0  0  0  0  0  0  0  0  0  0  0  0
    4.0442   -7.9952    0.0000 F   0  0  0  0  0  0  0  0  0  0  0  0
    1.4462   -6.4952    0.0000 F   0  0  0  0  0  0  0  0  0  0  0  0
    1.9952   -8.5442    0.0000 C   0  0  0  0  0  0  0  0  0  0  0  0
    0.6962   -7.7942    0.0000 F   0  0  0  0  0  0  0  0  0  0  0  0
    3.2942   -9.2942    0.0000 F   0  0  0  0  0  0  0  0  0  0  0  0
    1.2452   -9.8433    0.0000 C   0  0  0  0  0  0  0  0  0  0  0  0
    0.4952  -11.1423    0.0000 F   0  0  0  0  0  0  0  0  0  0  0  0
    2.5442  -10.5933    0.0000 F   0  0  0  0  0  0  0  0  0  0  0  0
   -0.0538   -9.0933    0.0000 F   0  0  0  0  0  0  0  0  0  0  0  0
  1  2  1  0
  2  3  2  0
  2  4  1  0
  4  5  1  0
  5  6  1  0
  6  7  1  0
  7  8  1  0
  8  9  2  0
  8 10  2  0
  8 11  1  0
 11 12  1  0
 11 13  1  0
 11 14  1  0
 14 15  1  0
 14 16  1  0
 14 17  1  0
 17 18  1  0
 17 19  1  0
 17 20  1  0
 20 21  1  0
 20 22  1  0
 20 23  1  0
 23 24  1  0
 23 25  1  0
 23 26  1  0
 26 27  1  0
 26 28  1  0
 26 29  1  0
 29 30  1  0
 29 31  1  0
 29 32  1  0
 32 33  1  0
 32 34  1  0
 32 35  1  0
M  END
$$$$

     RDKit          2D

 29 29  0  0  0  0  0  0  0  0999 V2000
    8.1231   -0.5078    0.0000 O   0  0  0  0  0  0  0  0  0  0  0  0
    8.0260   -1.2990    0.0000 S   0  0  0  0  0  0  0  0  0  0  0  0
    8.0260   -2.7990    0.0000 O   0  0  0  0  0  0  0  0  0  0  0  0
    9.5260   -1.2990    0.0000 C   0  0  0  0  0  0  0  0  0  0  0  0
   10.2760   -2.5981    0.0000 C   0  0  0  0  0  0  0  0  0  0  0  0
   11.7760   -2.5981    0.0000 C   0  0  0  0  0  0  0  0  0  0  0  0
   12.6577   -3.8116    0.0000 C   0  0  0  0  0  0  0  0  0  0  0  0
   14.0842   -3.3481    0.0000 C   0  0  0  0  0  0  0  0  0  0  0  0
   14.0842   -1.8481    0.0000 C   0  0  0  0  0  0  0  0  0  0  0  0
   12.6577   -1.3846    0.0000 S   0  0  0  0  0  0  0  0  0  0  0  0
    6.5260   -1.2990    0.0000 C   0  0  0  0  0  0  0  0  0  0  0  0
    6.5260   -2.7990    0.0000 F   0  0  0  0  0  0  0  0  0  0  0  0
    5.0260   -1.2990    0.0000 F   0  0  0  0  0  0  0  0  0  0  0  0
    6.5260    0.2010    0.0000 C   0  0  0  0  0  0  0  0  0  0  0  0
    5.0260    0.2010    0.0000 F   0  0  0  0  0  0  0  0  0  0  0  0
    7.4051    0.3089    0.0000 F   0  0  0  0  0  0  0  0  0  0  0  0
    6.5260    1.7010    0.0000 C   0  0  0  0  0  0  0  0  0  0  0  0
    5.0260    1.7010    0.0000 F   0  0  0  0  0  0  0  0  0  0  0  0
    8.0260    1.7010    0.0000 F   0  0  0  0  0  0  0  0  0  0  0  0
    6.5260    3.2010    0.0000 C   0  0  0  0  0  0  0  0  0  0  0  0
    5.0260    3.2010    0.0000 F   0  0  0  0  0  0  0  0  0  0  0  0
    8.0260    3.2010    0.0000 F   0  0  0  0  0  0  0  0  0  0  0  0
    6.5260    4.7010    0.0000 C   0  0  0  0  0  0  0  0  0  0  0  0
    8.0260    4.7010    0.0000 F   0  0  0  0  0  0  0  0  0  0  0  0
    5.0260    4.7010    0.0000 F   0  0  0  0  0  0  0  0  0  0  0  0
    6.5260    6.2010    0.0000 C   0  0  0  0  0  0  0  0  0  0  0  0
    6.5260    7.7010    0.0000 F   0  0  0  0  0  0  0  0  0  0  0  0
    5.0260    6.2010    0.0000 F   0  0  0  0  0  0  0  0  0  0  0  0
    8.0260    6.2010    0.0000 F   0  0  0  0  0  0  0  0  0  0  0  0
  1  2  2  0
  2  3  2  0
  2  4  1  0
  4  5  2  3
  5  6  1  0
  6  7  2  0
  7  8  1  0
  8  9  2  0
  9 10  1  0
  2 11  1  0
 11 12  1  0
 11 13  1  0
 11 14  1  0
 14 15  1  0
 14 16  1  0
 14 17  1  0
 17 18  1  0
 17 19  1  0
 17 20  1  0
 20 21  1  0
 20 22  1  0
 20 23  1  0
 23 24  1  0
 23 25  1  0
 23 26  1  0
 26 27  1  0
 26 28  1  0
 26 29  1  0
 10  6  1  0
M  END
$$$$

     RDKit          2D

 21 21  0  0  0  0  0  0  0  0999 V2000
    5.2500   -1.2990    0.0000 F   0  0  0  0  0  0  0  0  0  0  0  0
    3.7500   -1.2990    0.0000 C   0  0  0  0  0  0  0  0  0  0  0  0
    3.0000   -2.5981    0.0000 O   0  0  0  0  0  0  0  0  0  0  0  0
    3.7500   -3.8971    0.0000 C   0  0  0  0  0  0  0  0  0  0  0  0
    5.0490   -3.1471    0.0000 F   0  0  0  0  0  0  0  0  0  0  0  0
    2.4510   -4.6471    0.0000 F   0  0  0  0  0  0  0  0  0  0  0  0
    4.5000   -5.1962    0.0000 C   0  0  0  0  0  0  0  0  0  0  0  0
    5.7990   -4.4462    0.0000 F   0  0  0  0  0  0  0  0  0  0  0  0
    3.2010   -5.9462    0.0000 F   0  0  0  0  0  0  0  0  0  0  0  0
    5.2500   -6.4952    0.0000 C   0  0  0  0  0  0  0  0  0  0  0  0
    6.0000   -7.7942    0.0000 F   0  0  0  0  0  0  0  0  0  0  0  0
    3.9510   -7.2452    0.0000 F   0  0  0  0  0  0  0  0  0  0  0  0
    6.5490   -5.7452    0.0000 F   0  0  0  0  0  0  0  0  0  0  0  0
    3.0000    0.0000    0.0000 C   0  0  0  0  0  0  0  0  0  0  0  0
    3.7500    1.2990    0.0000 F   0  0  0  0  0  0  0  0  0  0  0  0
    1.5000    0.0000    0.0000 C   0  0  0  0  0  0  0  0  0  0  0  0
    0.7500   -1.2990    0.0000 C   0  0  0  0  0  0  0  0  0  0  0  0
   -0.7500   -1.2990    0.0000 C   0  0  0  0  0  0  0  0  0  0  0  0
   -1.5000    0.0000    0.0000 C   0  0  0  0  0  0  0  0  0  0  0  0
   -0.7500    1.2990    0.0000 C   0  0  0  0  0  0  0  0  0  0  0  0
    0.7500    1.2990    0.0000 C   0  0  0  0  0  0  0  0  0  0  0  0
  1  2  1  0
  2  3  1  0
  3  4  1  0
  4  5  1  0
  4  6  1  0
  4  7  1  0
  7  8  1  0
  7  9  1  0
  7 10  1  0
 10 11  1  0
 10 12  1  0
 10 13  1  0
  2 14  2  0
 14 15  1  0
 14 16  1  0
 16 17  2  0
 17 18  1  0
 18 19  2  0
 19 20  1  0
 20 21  2  0
 21 16  1  0
M  END
$$$$

     RDKit          2D

 21 20  0  0  0  0  0  0  0  0999 V2000
    5.1962   -3.0000    0.0000 F   0  0  0  0  0  0  0  0  0  0  0  0
    3.8971   -2.2500    0.0000 C   0  0  0  0  0  0  0  0  0  0  0  0
    3.8971   -0.7500    0.0000 C   0  0  0  0  0  0  0  0  0  0  0  0
    4.6309   -0.4385    0.0000 F   0  0  0  0  0  0  0  0  0  0  0  0
    2.5981   -0.0000    0.0000 C   0  0  0  0  0  0  0  0  0  0  0  0
    1.8481   -1.2990    0.0000 F   0  0  0  0  0  0  0  0  0  0  0  0
    3.3481    1.2990    0.0000 O   0  0  0  0  0  0  0  0  0  0  0  0
    4.8481    1.2990    0.0000 C   0  0  0  0  0  0  0  0  0  0  0  0
    4.9452    0.5078    0.0000 F   0  0  0  0  0  0  0  0  0  0  0  0
    4.8481    2.7990    0.0000 F   0  0  0  0  0  0  0  0  0  0  0  0
    6.3481    1.2990    0.0000 C   0  0  0  0  0  0  0  0  0  0  0  0
    6.3481    2.7990    0.0000 F   0  0  0  0  0  0  0  0  0  0  0  0
    6.3481   -0.2010    0.0000 F   0  0  0  0  0  0  0  0  0  0  0  0
    7.8481    1.2990    0.0000 C   0  0  0  0  0  0  0  0  0  0  0  0
    9.3481    1.2990    0.0000 F   0  0  0  0  0  0  0  0  0  0  0  0
    7.8481   -0.2010    0.0000 F   0  0  0  0  0  0  0  0  0  0  0  0
    7.8481    2.7990    0.0000 F   0  0  0  0  0  0  0  0  0  0  0  0
    1.2990    0.7500    0.0000 C   0  0  0  0  0  0  0  0  0  0  0  0
    0.0000    1.5000    0.0000 F   0  0  0  0  0  0  0  0  0  0  0  0
    0.5490   -0.5490    0.0000 F   0  0  0  0  0  0  0  0  0  0  0  0
    2.0490    2.0490    0.0000 F   0  0  0  0  0  0  0  0  0  0  0  0
  1  2  1  0
  2  3  2  3
  3  4  1  0
  3  5  1  0
  5  6  1  0
  5  7  1  0
  7  8  1  0
  8  9  1  0
  8 10  1  0
  8 11  1  0
 11 12  1  0
 11 13  1  0
 11 14  1  0
 14 15  1  0
 14 16  1  0
 14 17  1  0
  5 18  1  0
 18 19  1  0
 18 20  1  0
 18 21  1  0
M  END
$$$$

     RDKit          2D

 25 26  0  0  0  0  0  0  0  0999 V2000
    3.0000    0.0000    0.0000 N   0  0  0  0  0  0  0  0  0  0  0  0
    1.5000    0.0000    0.0000 C   0  0  0  0  0  0  0  0  0  0  0  0
    0.7500   -1.2990    0.0000 C   0  0  0  0  0  0  0  0  0  0  0  0
   -0.7500   -1.2990    0.0000 C   0  0  0  0  0  0  0  0  0  0  0  0
   -1.5000    0.0000    0.0000 C   0  0  0  0  0  0  0  0  0  0  0  0
   -3.0000    0.0000    0.0000 O   0  0  0  0  0  0  0  0  0  0  0  0
   -3.7500    1.2990    0.0000 C   0  0  0  0  0  0  0  0  0  0  0  0
   -3.0000    2.5981    0.0000 C   0  0  0  0  0  0  0  0  0  0  0  0
   -3.7500    3.8971    0.0000 C   0  0  0  0  0  0  0  0  0  0  0  0
   -5.2500    3.8971    0.0000 C   0  0  0  0  0  0  0  0  0  0  0  0
   -6.0000    5.1962    0.0000 O   0  0  0  0  0  0  0  0  0  0  0  0
   -5.2500    6.4952    0.0000 C   0  0  0  0  0  0  0  0  0  0  0  0
   -3.9510    5.7452    0.0000 F   0  0  0  0  0  0  0  0  0  0  0  0
   -6.5490    7.2452    0.0000 F   0  0  0  0  0  0  0  0  0  0  0  0
   -4.5000    7.7942    0.0000 C   0  0  0  0  0  0  0  0  0  0  0  0
   -5.2500    9.0933    0.0000 F   0  0  0  0  0  0  0  0  0  0  0  0
   -3.0000    7.7942    0.0000 C   0  0  0  0  0  0  0  0  0  0  0  0
   -1.5000    7.7942    0.0000 F   0  0  0  0  0  0  0  0  0  0  0  0
   -3.0000    9.2942    0.0000 F   0  0  0  0  0  0  0  0  0  0  0  0
   -3.0000    6.2942    0.0000 F   0  0  0  0  0  0  0  0  0  0  0  0
   -6.0000    2.5981    0.0000 C   0  0  0  0  0  0  0  0  0  0  0  0
   -5.2500    1.2990    0.0000 C   0  0  0  0  0  0  0  0  0  0  0  0
   -0.7500    1.2990    0.0000 C   0  0  0  0  0  0  0  0  0  0  0  0
   -1.5000    2.5981    0.0000 Cl  0  0  0  0  0  0  0  0  0  0  0  0
    0.7500    1.2990    0.0000 C   0  0  0  0  0  0  0  0  0  0  0  0
  1  2  1  0
  2  3  2  0
  3  4  1  0
  4  5  2  0
  5  6  1  0
  6  7  1  0
  7  8  2  0
  8  9  1  0
  9 10  2  0
 10 11  1  0
 11 12  1  0
 12 13  1  0
 12 14  1  0
 12 15  1  0
 15 16  1  0
 15 17  1  0
 17 18  1  0
 17 19  1  0
 17 20  1  0
 10 21  1  0
 21 22  2  0
  5 23  1  0
 23 24  1  0
 23 25  2  0
 25  2  1  0
 22  7  1  0
M  END
$$$$

     RDKit          2D

 16 16  0  0  0  0  0  0  0  0999 V2000
    2.7648    0.1828    0.0000 C   0  0  0  0  0  0  0  0  0  0  0  0
    1.2760    0.0000    0.0000 C   0  0  0  0  0  0  0  0  0  0  0  0
    0.3943    1.2135    0.0000 C   0  0  0  0  0  0  0  0  0  0  0  0
    0.8578    2.6401    0.0000 O   0  0  0  0  0  0  0  0  0  0  0  0
   -1.0323    0.7500    0.0000 C   0  0  0  0  0  0  0  0  0  0  0  0
   -2.2458    1.6317    0.0000 O   0  0  0  0  0  0  0  0  0  0  0  0
   -1.0323   -0.7500    0.0000 O   0  0  0  0  0  0  0  0  0  0  0  0
    0.3943   -1.2135    0.0000 C   0  0  0  0  0  0  0  0  0  0  0  0
    1.6933   -1.9635    0.0000 C   0  0  0  0  0  0  0  0  0  0  0  0
    2.9924   -2.7135    0.0000 F   0  0  0  0  0  0  0  0  0  0  0  0
    2.5961   -0.7656    0.0000 F   0  0  0  0  0  0  0  0  0  0  0  0
    1.3819   -2.6973    0.0000 F   0  0  0  0  0  0  0  0  0  0  0  0
   -0.2158   -2.5838    0.0000 C   0  0  0  0  0  0  0  0  0  0  0  0
   -0.8259   -3.9542    0.0000 F   0  0  0  0  0  0  0  0  0  0  0  0
   -1.5861   -1.9737    0.0000 F   0  0  0  0  0  0  0  0  0  0  0  0
    0.4675   -2.9944    0.0000 F   0  0  0  0  0  0  0  0  0  0  0  0
  1  2  1  0
  2  3  2  0
  3  4  1  0
  3  5  1  0
  5  6  2  0
  5  7  1  0
  7  8  1  0
  8  9  1  0
  9 10  1  0
  9 11  1  0
  9 12  1  0
  8 13  1  0
 13 14  1  0
 13 15  1  0
 13 16  1  0
  8  2  1  0
M  END
$$$$

     RDKit          2D

 12 11  0  0  0  0  0  0  0  0999 V2000
    0.0000    0.0000    0.0000 C   0  0  0  0  0  0  0  0  0  0  0  0
    1.2990    0.7500    0.0000 C   0  0  0  0  0  0  0  0  0  0  0  0
    1.2990    2.2500    0.0000 C   0  0  0  0  0  0  0  0  0  0  0  0
    2.5981    3.0000    0.0000 O   0  0  0  0  0  0  0  0  0  0  0  0
    0.0000    3.0000    0.0000 Cl  0  0  0  0  0  0  0  0  0  0  0  0
    2.5981   -0.0000    0.0000 C   0  0  0  0  0  0  0  0  0  0  0  0
    3.3481    1.2990    0.0000 F   0  0  0  0  0  0  0  0  0  0  0  0
    1.8481   -1.2990    0.0000 F   0  0  0  0  0  0  0  0  0  0  0  0
    3.8971   -0.7500    0.0000 C   0  0  0  0  0  0  0  0  0  0  0  0
    5.1962   -1.5000    0.0000 F   0  0  0  0  0  0  0  0  0  0  0  0
    3.1471   -2.0490    0.0000 F   0  0  0  0  0  0  0  0  0  0  0  0
    4.6471    0.5490    0.0000 F   0  0  0  0  0  0  0  0  0  0  0  0
  1  2  2  0
  2  3  1  0
  3  4  2  0
  3  5  1  0
  2  6  1  0
  6  7  1  0
  6  8  1  0
  6  9  1  0
  9 10  1  0
  9 11  1  0
  9 12  1  0
M  END
$$$$

     RDKit          2D

 12 11  0  0  0  0  0  0  0  0999 V2000
    0.0000    0.0000    0.0000 C   0  0  0  0  0  0  0  0  0  0  0  0
    1.2990    0.7500    0.0000 C   0  0  0  0  0  0  0  0  0  0  0  0
    1.2990    2.2500    0.0000 N   0  0  0  0  0  0  0  0  0  0  0  0
    2.5981   -0.0000    0.0000 C   0  0  0  0  0  0  0  0  0  0  0  0
    3.8971    0.7500    0.0000 C   0  0  0  0  0  0  0  0  0  0  0  0
    3.8971    2.2500    0.0000 O   0  0  0  0  0  0  0  0  0  0  0  0
    5.1962   -0.0000    0.0000 C   0  0  0  0  0  0  0  0  0  0  0  0
    5.9462    1.2990    0.0000 F   0  0  0  0  0  0  0  0  0  0  0  0
    4.4462   -1.2990    0.0000 F   0  0  0  0  0  0  0  0  0  0  0  0
    6.4952   -0.7500    0.0000 C   0  0  0  0  0  0  0  0  0  0  0  0
    6.4952   -2.2500    0.0000 F   0  0  0  0  0  0  0  0  0  0  0  0
    7.7942   -0.0000    0.0000 F   0  0  0  0  0  0  0  0  0  0  0  0
  1  2  1  0
  2  3  1  0
  2  4  2  3
  4  5  1  0
  5  6  2  0
  5  7  1  0
  7  8  1  0
  7  9  1  0
  7 10  1  0
 10 11  1  0
 10 12  1  0
M  END
$$$$

     RDKit          2D

 16 15  0  0  0  0  0  0  0  0999 V2000
    0.0000    0.0000    0.0000 C   0  0  0  0  0  0  0  0  0  0  0  0
    1.2990    0.7500    0.0000 O   0  0  0  0  0  0  0  0  0  0  0  0
    2.5981   -0.0000    0.0000 C   0  0  0  0  0  0  0  0  0  0  0  0
    2.5981   -1.5000    0.0000 O   0  0  0  0  0  0  0  0  0  0  0  0
    3.8971    0.7500    0.0000 C   0  0  0  0  0  0  0  0  0  0  0  0
    5.1962   -0.0000    0.0000 C   0  0  0  0  0  0  0  0  0  0  0  0
    6.4952    0.7500    0.0000 C   0  0  0  0  0  0  0  0  0  0  0  0
    7.2452   -0.5490    0.0000 F   0  0  0  0  0  0  0  0  0  0  0  0
    5.7452    2.0490    0.0000 F   0  0  0  0  0  0  0  0  0  0  0  0
    7.7942    1.5000    0.0000 C   0  0  0  0  0  0  0  0  0  0  0  0
    7.0442    2.7990    0.0000 F   0  0  0  0  0  0  0  0  0  0  0  0
    8.5442    0.2010    0.0000 F   0  0  0  0  0  0  0  0  0  0  0  0
    9.0933    2.2500    0.0000 C   0  0  0  0  0  0  0  0  0  0  0  0
   10.3923    3.0000    0.0000 F   0  0  0  0  0  0  0  0  0  0  0  0
    9.8433    0.9510    0.0000 F   0  0  0  0  0  0  0  0  0  0  0  0
    8.3433    3.5490    0.0000 F   0  0  0  0  0  0  0  0  0  0  0  0
  1  2  1  0
  2  3  1  0
  3  4  2  0
  3  5  1  0
  5  6  2  3
  6  7  1  0
  7  8  1  0
  7  9  1  0
  7 10  1  0
 10 11  1  0
 10 12  1  0
 10 13  1  0
 13 14  1  0
 13 15  1  0
 13 16  1  0
M  END
$$$$

     RDKit          2D

 33 32  0  0  0  0  0  0  0  0999 V2000
    0.0000    0.0000    0.0000 C   0  0  0  0  0  0  0  0  0  0  0  0
    1.2990    0.7500    0.0000 C   0  0  0  0  0  0  0  0  0  0  0  0
    2.5981   -0.0000    0.0000 C   0  0  0  0  0  0  0  0  0  0  0  0
    3.8971    0.7500    0.0000 C   0  0  0  0  0  0  0  0  0  0  0  0
    5.1962   -0.0000    0.0000 C   0  0  0  0  0  0  0  0  0  0  0  0
    6.4952    0.7500    0.0000 C   0  0  0  0  0  0  0  0  0  0  0  0
    7.7942   -0.0000    0.0000 C   0  0  0  0  0  0  0  0  0  0  0  0
    9.0933    0.7500    0.0000 C   0  0  0  0  0  0  0  0  0  0  0  0
   10.3923   -0.0000    0.0000 C   0  0  0  0  0  0  0  0  0  0  0  0
   11.6913    0.7500    0.0000 C   0  0  0  0  0  0  0  0  0  0  0  0
   12.9904   -0.0000    0.0000 C   0  0  0  0  0  0  0  0  0  0  0  0
   14.2894    0.7500    0.0000 C   0  0  0  0  0  0  0  0  0  0  0  0
   15.5885   -0.0000    0.0000 C   0  0  0  0  0  0  0  0  0  0  0  0
   16.8875    0.7500    0.0000 C   0  0  0  0  0  0  0  0  0  0  0  0
   18.1865   -0.0000    0.0000 C   0  0  0  0  0  0  0  0  0  0  0  0
   19.4856    0.7500    0.0000 C   0  0  0  0  0  0  0  0  0  0  0  0
   20.7846   -0.0000    0.0000 C   0  0  0  0  0  0  0  0  0  0  0  0
   22.0836    0.7500    0.0000 C   0  0  0  0  0  0  0  0  0  0  0  0
   23.3827   -0.0000    0.0000 C   0  0  0  0  0  0  0  0  0  0  0  0
   24.6817    0.7500    0.0000 C   0  0  0  0  0  0  0  0  0  0  0  0
   25.9808   -0.0000    0.0000 C   0  0  0  0  0  0  0  0  0  0  0  0
   26.7308    1.2990    0.0000 F   0  0  0  0  0  0  0  0  0  0  0  0
   25.2308   -1.2990    0.0000 F   0  0  0  0  0  0  0  0  0  0  0  0
   27.2798   -0.7500    0.0000 C   0  0  0  0  0  0  0  0  0  0  0  0
   26.5298   -2.0490    0.0000 F   0  0  0  0  0  0  0  0  0  0  0  0
   28.0298    0.5490    0.0000 F   0  0  0  0  0  0  0  0  0  0  0  0
   28.5788   -1.5000    0.0000 C   0  0  0  0  0  0  0  0  0  0  0  0
   29.3288   -0.2010    0.0000 F   0  0  0  0  0  0  0  0  0  0  0  0
   27.8288   -2.7990    0.0000 F   0  0  0  0  0  0  0  0  0  0  0  0
   29.8779   -2.2500    0.0000 C   0  0  0  0  0  0  0  0  0  0  0  0
   31.1769   -3.0000    0.0000 F   0  0  0  0  0  0  0  0  0  0  0  0
   29.1279   -3.5490    0.0000 F   0  0  0  0  0  0  0  0  0  0  0  0
   30.6279   -0.9510    0.0000 F   0  0  0  0  0  0  0  0  0  0  0  0
  1  2  1  0
  2  3  1  0
  3  4  1  0
  4  5  1  0
  5  6  1  0
  6  7  1  0
  7  8  1  0
  8  9  1  0
  9 10  1  0
 10 11  1  0
 11 12  1  0
 12 13  1  0
 13 14  1  0
 14 15  1  0
 15 16  1  0
 16 17  1  0
 17 18  1  0
 18 19  1  0
 19 20  1  0
 20 21  1  0
 21 22  1  0
 21 23  1  0
 21 24  1  0
 24 25  1  0
 24 26  1  0
 24 27  1  0
 27 28  1  0
 27 29  1  0
 27 30  1  0
 30 31  1  0
 30 32  1  0
 30 33  1  0
M  END
$$$$

     RDKit          2D

 14 15  0  0  0  0  0  0  0  0999 V2000
    3.0000    0.0000    0.0000 C   0  0  0  0  0  0  0  0  0  0  0  0
    1.5000    0.0000    0.0000 C   0  0  0  0  0  0  0  0  0  0  0  0
    0.7500   -1.2990    0.0000 C   0  0  0  0  0  0  0  0  0  0  0  0
   -0.7500   -1.2990    0.0000 C   0  0  0  0  0  0  0  0  0  0  0  0
   -1.5000    0.0000    0.0000 C   0  0  0  0  0  0  0  0  0  0  0  0
   -0.7500    1.2990    0.0000 C   0  0  0  0  0  0  0  0  0  0  0  0
    0.7500    1.2990    0.0000 C   0  0  0  0  0  0  0  0  0  0  0  0
   -1.7537    2.4138    0.0000 C   0  0  0  0  0  0  0  0  0  0  0  0
   -0.5402    3.2954    0.0000 F   0  0  0  0  0  0  0  0  0  0  0  0
   -2.5037    3.7128    0.0000 F   0  0  0  0  0  0  0  0  0  0  0  0
   -3.1240    1.8037    0.0000 C   0  0  0  0  0  0  0  0  0  0  0  0
   -3.5875    3.2302    0.0000 F   0  0  0  0  0  0  0  0  0  0  0  0
   -4.5912    1.4918    0.0000 F   0  0  0  0  0  0  0  0  0  0  0  0
   -2.9672    0.3119    0.0000 C   0  0  0  0  0  0  0  0  0  0  0  0
  1  2  1  0
  2  3  2  0
  3  4  1  0
  4  5  2  0
  5  6  1  0
  6  7  2  0
  6  8  1  0
  8  9  1  0
  8 10  1  0
  8 11  1  0
 11 12  1  0
 11 13  1  0
 11 14  1  0
  7  2  1  0
 14  5  1  0
M  END
$$$$

     RDKit          2D

 16 15  0  0  0  0  0  0  0  0999 V2000
    1.2990    2.2500    0.0000 O   0  0  0  0  0  0  0  0  0  0  0  0
    1.2990    0.7500    0.0000 C   0  0  0  0  0  0  0  0  0  0  0  0
    2.5981   -0.0000    0.0000 O   0  0  0  0  0  0  0  0  0  0  0  0
    0.0000    0.0000    0.0000 C   0  0  0  0  0  0  0  0  0  0  0  0
   -1.2990    0.7500    0.0000 O   0  0  0  0  0  0  0  0  0  0  0  0
   -2.5981    0.0000    0.0000 C   0  0  0  0  0  0  0  0  0  0  0  0
   -1.8481   -1.2990    0.0000 F   0  0  0  0  0  0  0  0  0  0  0  0
   -3.3481    1.2990    0.0000 F   0  0  0  0  0  0  0  0  0  0  0  0
   -3.8971   -0.7500    0.0000 C   0  0  0  0  0  0  0  0  0  0  0  0
   -3.1471   -2.0490    0.0000 F   0  0  0  0  0  0  0  0  0  0  0  0
   -4.6471    0.5490    0.0000 F   0  0  0  0  0  0  0  0  0  0  0  0
   -5.1962   -1.5000    0.0000 O   0  0  0  0  0  0  0  0  0  0  0  0
   -6.4952   -0.7500    0.0000 C   0  0  0  0  0  0  0  0  0  0  0  0
   -7.7942    0.0000    0.0000 F   0  0  0  0  0  0  0  0  0  0  0  0
   -7.2452   -2.0490    0.0000 F   0  0  0  0  0  0  0  0  0  0  0  0
   -5.7452    0.5490    0.0000 F   0  0  0  0  0  0  0  0  0  0  0  0
  1  2  2  0
  2  3  1  0
  2  4  1  0
  4  5  1  0
  5  6  1  0
  6  7  1  0
  6  8  1  0
  6  9  1  0
  9 10  1  0
  9 11  1  0
  9 12  1  0
 12 13  1  0
 13 14  1  0
 13 15  1  0
 13 16  1  0
M  END
$$$$

     RDKit          2D

 19 18  0  0  0  0  0  0  0  0999 V2000
   -0.0000   -1.5000    0.0000 O   0  0  0  0  0  0  0  0  0  0  0  0
    0.0000    0.0000    0.0000 C   0  0  0  0  0  0  0  0  0  0  0  0
   -1.2990    0.7500    0.0000 O   0  0  0  0  0  0  0  0  0  0  0  0
    1.2990    0.7500    0.0000 C   0  0  0  0  0  0  0  0  0  0  0  0
    1.2990    2.2500    0.0000 F   0  0  0  0  0  0  0  0  0  0  0  0
    2.5981   -0.0000    0.0000 C   0  0  0  0  0  0  0  0  0  0  0  0
    3.3481    1.2990    0.0000 F   0  0  0  0  0  0  0  0  0  0  0  0
    1.8481   -1.2990    0.0000 F   0  0  0  0  0  0  0  0  0  0  0  0
    3.8971   -0.7500    0.0000 O   0  0  0  0  0  0  0  0  0  0  0  0
    3.8971   -2.2500    0.0000 C   0  0  0  0  0  0  0  0  0  0  0  0
    2.3971   -2.2500    0.0000 F   0  0  0  0  0  0  0  0  0  0  0  0
    5.3971   -2.2500    0.0000 F   0  0  0  0  0  0  0  0  0  0  0  0
    3.8971   -3.7500    0.0000 C   0  0  0  0  0  0  0  0  0  0  0  0
    2.3971   -3.7500    0.0000 F   0  0  0  0  0  0  0  0  0  0  0  0
    5.3971   -3.7500    0.0000 F   0  0  0  0  0  0  0  0  0  0  0  0
    3.8971   -5.2500    0.0000 C   0  0  0  0  0  0  0  0  0  0  0  0
    3.8971   -6.7500    0.0000 F   0  0  0  0  0  0  0  0  0  0  0  0
    5.3971   -5.2500    0.0000 F   0  0  0  0  0  0  0  0  0  0  0  0
    2.3971   -5.2500    0.0000 F   0  0  0  0  0  0  0  0  0  0  0  0
  1  2  2  0
  2  3  1  0
  2  4  1  0
  4  5  1  0
  4  6  1  0
  6  7  1  0
  6  8  1  0
  6  9  1  0
  9 10  1  0
 10 11  1  0
 10 12  1  0
 10 13  1  0
 13 14  1  0
 13 15  1  0
 13 16  1  0
 16 17  1  0
 16 18  1  0
 16 19  1  0
M  END
$$$$

     RDKit          2D

 21 21  0  0  0  0  0  0  0  0999 V2000
    3.0000    0.0000    0.0000 N   0  0  0  0  0  0  0  0  0  0  0  0
    1.5000    0.0000    0.0000 C   0  0  0  0  0  0  0  0  0  0  0  0
    0.7500   -1.2990    0.0000 C   0  0  0  0  0  0  0  0  0  0  0  0
    1.5000   -2.5981    0.0000 Br  0  0  0  0  0  0  0  0  0  0  0  0
   -0.7500   -1.2990    0.0000 C   0  0  0  0  0  0  0  0  0  0  0  0
   -1.5000    0.0000    0.0000 C   0  0  0  0  0  0  0  0  0  0  0  0
   -3.0000    0.0000    0.0000 Br  0  0  0  0  0  0  0  0  0  0  0  0
   -0.7500    1.2990    0.0000 C   0  0  0  0  0  0  0  0  0  0  0  0
   -1.5000    2.5981    0.0000 S   0  0  0  0  0  0  0  0  0  0  0  0
   -0.7500    3.8971    0.0000 C   0  0  0  0  0  0  0  0  0  0  0  0
    0.5490    3.1471    0.0000 F   0  0  0  0  0  0  0  0  0  0  0  0
    0.0000    5.1962    0.0000 F   0  0  0  0  0  0  0  0  0  0  0  0
   -2.0490    4.6471    0.0000 C   0  0  0  0  0  0  0  0  0  0  0  0
   -2.7990    3.3481    0.0000 F   0  0  0  0  0  0  0  0  0  0  0  0
   -1.2990    5.9462    0.0000 F   0  0  0  0  0  0  0  0  0  0  0  0
   -3.3481    5.3971    0.0000 C   0  0  0  0  0  0  0  0  0  0  0  0
   -4.6471    6.1471    0.0000 F   0  0  0  0  0  0  0  0  0  0  0  0
   -4.0981    4.0981    0.0000 F   0  0  0  0  0  0  0  0  0  0  0  0
   -2.5981    6.6962    0.0000 F   0  0  0  0  0  0  0  0  0  0  0  0
    0.7500    1.2990    0.0000 C   0  0  0  0  0  0  0  0  0  0  0  0
    1.5000    2.5981    0.0000 Br  0  0  0  0  0  0  0  0  0  0  0  0
  1  2  1  0
  2  3  2  0
  3  4  1  0
  3  5  1  0
  5  6  2  0
  6  7  1  0
  6  8  1  0
  8  9  1  0
  9 10  1  0
 10 11  1  0
 10 12  1  0
 10 13  1  0
 13 14  1  0
 13 15  1  0
 13 16  1  0
 16 17  1  0
 16 18  1  0
 16 19  1  0
  8 20  2  0
 20 21  1  0
 20  2  1  0
M  END
$$$$

     RDKit          2D

 18 17  0  0  0  0  0  0  0  0999 V2000
   -2.2500   -2.7990    0.0000 C   0  0  0  0  0  0  0  0  0  0  0  0
   -2.2500   -1.2990    0.0000 C   0  0  0  0  0  0  0  0  0  0  0  0
   -2.2500    0.2010    0.0000 C   0  0  0  0  0  0  0  0  0  0  0  0
   -3.7500   -1.2990    0.0000 C   0  0  0  0  0  0  0  0  0  0  0  0
   -0.7500   -1.2990    0.0000 C   0  0  0  0  0  0  0  0  0  0  0  0
    0.0000    0.0000    0.0000 C   0  0  0  0  0  0  0  0  0  0  0  0
    1.5000    0.0000    0.0000 C   0  0  0  0  0  0  0  0  0  0  0  0
    2.2500   -1.2990    0.0000 F   0  0  0  0  0  0  0  0  0  0  0  0
    2.2500    1.2990    0.0000 C   0  0  0  0  0  0  0  0  0  0  0  0
    3.5490    0.5490    0.0000 F   0  0  0  0  0  0  0  0  0  0  0  0
    0.9510    2.0490    0.0000 F   0  0  0  0  0  0  0  0  0  0  0  0
    3.0000    2.5981    0.0000 C   0  0  0  0  0  0  0  0  0  0  0  0
    1.7010    3.3481    0.0000 F   0  0  0  0  0  0  0  0  0  0  0  0
    4.2990    1.8481    0.0000 F   0  0  0  0  0  0  0  0  0  0  0  0
    3.7500    3.8971    0.0000 C   0  0  0  0  0  0  0  0  0  0  0  0
    4.5000    5.1962    0.0000 F   0  0  0  0  0  0  0  0  0  0  0  0
    5.0490    3.1471    0.0000 F   0  0  0  0  0  0  0  0  0  0  0  0
    2.4510    4.6471    0.0000 F   0  0  0  0  0  0  0  0  0  0  0  0
  1  2  1  0
  2  3  1  0
  2  4  1  0
  2  5  1  0
  5  6  1  0
  6  7  2  0
  7  8  1  0
  7  9  1  0
  9 10  1  0
  9 11  1  0
  9 12  1  0
 12 13  1  0
 12 14  1  0
 12 15  1  0
 15 16  1  0
 15 17  1  0
 15 18  1  0
M  END
$$$$

     RDKit          2D

 24 23  0  0  0  0  0  0  0  0999 V2000
   -1.2990    0.7500    0.0000 O   0  0  0  0  0  0  0  0  0  0  0  0
    0.0000    0.0000    0.0000 C   0  0  0  0  0  0  0  0  0  0  0  0
    1.2990    0.7500    0.0000 C   0  0  0  0  0  0  0  0  0  0  0  0
    0.5490    2.0490    0.0000 F   0  0  0  0  0  0  0  0  0  0  0  0
    2.0490   -0.5490    0.0000 F   0  0  0  0  0  0  0  0  0  0  0  0
    2.5981    1.5000    0.0000 C   0  0  0  0  0  0  0  0  0  0  0  0
    2.5981    3.0000    0.0000 C   0  0  0  0  0  0  0  0  0  0  0  0
    4.0981    3.0000    0.0000 F   0  0  0  0  0  0  0  0  0  0  0  0
    1.0981    3.0000    0.0000 F   0  0  0  0  0  0  0  0  0  0  0  0
    2.5981    4.5000    0.0000 C   0  0  0  0  0  0  0  0  0  0  0  0
    1.0981    4.5000    0.0000 F   0  0  0  0  0  0  0  0  0  0  0  0
    4.0981    4.5000    0.0000 F   0  0  0  0  0  0  0  0  0  0  0  0
    2.5981    6.0000    0.0000 C   0  0  0  0  0  0  0  0  0  0  0  0
    1.0981    6.0000    0.0000 F   0  0  0  0  0  0  0  0  0  0  0  0
    4.0981    6.0000    0.0000 F   0  0  0  0  0  0  0  0  0  0  0  0
    2.5981    7.5000    0.0000 C   0  0  0  0  0  0  0  0  0  0  0  0
    4.0981    7.5000    0.0000 F   0  0  0  0  0  0  0  0  0  0  0  0
    1.0981    7.5000    0.0000 F   0  0  0  0  0  0  0  0  0  0  0  0
    2.5981    9.0000    0.0000 C   0  0  0  0  0  0  0  0  0  0  0  0
    3.8971    9.7500    0.0000 C   0  0  0  0  0  0  0  0  0  0  0  0
    3.1471   11.0490    0.0000 F   0  0  0  0  0  0  0  0  0  0  0  0
    4.6471    8.4510    0.0000 F   0  0  0  0  0  0  0  0  0  0  0  0
    5.1962   10.5000    0.0000 C   0  0  0  0  0  0  0  0  0  0  0  0
    6.4952    9.7500    0.0000 O   0  0  0  0  0  0  0  0  0  0  0  0
  1  2  1  0
  2  3  1  0
  3  4  1  0
  3  5  1  0
  3  6  1  0
  6  7  1  0
  7  8  1  0
  7  9  1  0
  7 10  1  0
 10 11  1  0
 10 12  1  0
 10 13  1  0
 13 14  1  0
 13 15  1  0
 13 16  1  0
 16 17  1  0
 16 18  1  0
 16 19  1  0
 19 20  1  0
 20 21  1  0
 20 22  1  0
 20 23  1  0
 23 24  1  0
M  END
$$$$

     RDKit          2D

 17 17  0  0  0  0  0  0  0  0999 V2000
    6.0000    0.0000    0.0000 O   0  0  0  0  0  0  0  0  0  0  0  0
    5.2500   -1.2990    0.0000 C   0  0  0  0  0  0  0  0  0  0  0  0
    3.7500   -1.2990    0.0000 C   0  0  0  0  0  0  0  0  0  0  0  0
    3.0000    0.0000    0.0000 C   0  0  0  0  0  0  0  0  0  0  0  0
    1.5000    0.0000    0.0000 C   0  0  0  0  0  0  0  0  0  0  0  0
    0.7500   -1.2990    0.0000 C   0  0  0  0  0  0  0  0  0  0  0  0
   -0.7500   -1.2990    0.0000 C   0  0  0  0  0  0  0  0  0  0  0  0
   -1.5000    0.0000    0.0000 C   0  0  0  0  0  0  0  0  0  0  0  0
   -0.7500    1.2990    0.0000 C   0  0  0  0  0  0  0  0  0  0  0  0
    0.7500    1.2990    0.0000 C   0  0  0  0  0  0  0  0  0  0  0  0
    6.0000   -2.5981    0.0000 C   0  0  0  0  0  0  0  0  0  0  0  0
    7.2990   -1.8481    0.0000 F   0  0  0  0  0  0  0  0  0  0  0  0
    4.7010   -3.3481    0.0000 F   0  0  0  0  0  0  0  0  0  0  0  0
    6.7500   -3.8971    0.0000 C   0  0  0  0  0  0  0  0  0  0  0  0
    7.5000   -5.1962    0.0000 F   0  0  0  0  0  0  0  0  0  0  0  0
    5.4510   -4.6471    0.0000 F   0  0  0  0  0  0  0  0  0  0  0  0
    8.0490   -3.1471    0.0000 F   0  0  0  0  0  0  0  0  0  0  0  0
  1  2  1  0
  2  3  1  0
  3  4  2  3
  4  5  1  0
  5  6  2  0
  6  7  1  0
  7  8  2  0
  8  9  1  0
  9 10  2  0
  2 11  1  0
 11 12  1  0
 11 13  1  0
 11 14  1  0
 14 15  1  0
 14 16  1  0
 14 17  1  0
 10  5  1  0
M  END
$$$$

     RDKit          2D

 18 19  0  0  0  0  0  0  0  0999 V2000
    3.0000    0.0000    0.0000 C   0  0  0  0  0  0  0  0  0  0  0  0
    1.5000    0.0000    0.0000 C   0  0  0  0  0  0  0  0  0  0  0  0
    0.7500   -1.2990    0.0000 C   0  0  0  0  0  0  0  0  0  0  0  0
   -0.7500   -1.2990    0.0000 C   0  0  0  0  0  0  0  0  0  0  0  0
   -1.5000    0.0000    0.0000 C   0  0  0  0  0  0  0  0  0  0  0  0
   -0.7500    1.2990    0.0000 C   0  0  0  0  0  0  0  0  0  0  0  0
    0.7500    1.2990    0.0000 C   0  0  0  0  0  0  0  0  0  0  0  0
   -1.7537    2.4138    0.0000 C   0  0  0  0  0  0  0  0  0  0  0  0
   -0.5402    3.2954    0.0000 C   0  0  0  0  0  0  0  0  0  0  0  0
    0.6734    4.1771    0.0000 F   0  0  0  0  0  0  0  0  0  0  0  0
    0.3415    2.0819    0.0000 F   0  0  0  0  0  0  0  0  0  0  0  0
   -0.9266    3.9927    0.0000 F   0  0  0  0  0  0  0  0  0  0  0  0
   -2.5037    3.7128    0.0000 C   0  0  0  0  0  0  0  0  0  0  0  0
   -3.2537    5.0118    0.0000 F   0  0  0  0  0  0  0  0  0  0  0  0
   -3.8027    2.9628    0.0000 F   0  0  0  0  0  0  0  0  0  0  0  0
   -1.8671    4.1926    0.0000 F   0  0  0  0  0  0  0  0  0  0  0  0
   -3.1240    1.8037    0.0000 O   0  0  0  0  0  0  0  0  0  0  0  0
   -2.9672    0.3119    0.0000 S   0  0  0  0  0  0  0  0  0  0  0  0
  1  2  1  0
  2  3  2  0
  3  4  1  0
  4  5  2  0
  5  6  1  0
  6  7  2  0
  6  8  1  0
  8  9  1  0
  9 10  1  0
  9 11  1  0
  9 12  1  0
  8 13  1  0
 13 14  1  0
 13 15  1  0
 13 16  1  0
  8 17  1  0
 17 18  1  0
  7  2  1  0
 18  5  1  0
M  END
$$$$

     RDKit          2D

 29 25  0  0  0  0  0  0  0  0999 V2000
    0.0000    9.0981    0.0000 O   0  0  0  0  0  0  0  0  0  0  0  0
    1.2990    9.8481    0.0000 P   0  0  0  0  0  0  0  0  0  0  0  0
    2.5981   10.5981    0.0000 O   0  0  0  0  0  0  0  0  0  0  0  0
    2.0490    8.5490    0.0000 O   0  0  0  0  0  0  0  0  0  0  0  0
    0.5490   11.1471    0.0000 O   0  0  0  0  0  0  0  0  0  0  0  0
   -1.2990    0.7500    0.0000 O   0  0  0  0  0  0  0  0  0  0  0  0
    0.0000    0.0000    0.0000 C   0  0  0  0  0  0  0  0  0  0  0  0
    1.2990    0.7500    0.0000 C   0  0  0  0  0  0  0  0  0  0  0  0
    2.0490   -0.5490    0.0000 F   0  0  0  0  0  0  0  0  0  0  0  0
    0.5490    2.0490    0.0000 F   0  0  0  0  0  0  0  0  0  0  0  0
    2.5981    1.5000    0.0000 C   0  0  0  0  0  0  0  0  0  0  0  0
    2.5981    3.0000    0.0000 F   0  0  0  0  0  0  0  0  0  0  0  0
    3.8971    0.7500    0.0000 F   0  0  0  0  0  0  0  0  0  0  0  0
   -1.2990    5.2990    0.0000 O   0  0  0  0  0  0  0  0  0  0  0  0
    0.0000    4.5490    0.0000 C   0  0  0  0  0  0  0  0  0  0  0  0
    1.2990    5.2990    0.0000 C   0  0  0  0  0  0  0  0  0  0  0  0
    2.0490    4.0000    0.0000 F   0  0  0  0  0  0  0  0  0  0  0  0
    0.5490    6.5981    0.0000 F   0  0  0  0  0  0  0  0  0  0  0  0
    2.5981    6.0490    0.0000 C   0  0  0  0  0  0  0  0  0  0  0  0
    2.5981    7.5490    0.0000 F   0  0  0  0  0  0  0  0  0  0  0  0
    3.8971    5.2990    0.0000 F   0  0  0  0  0  0  0  0  0  0  0  0
    4.8971    0.7500    0.0000 O   0  0  0  0  0  0  0  0  0  0  0  0
    6.1962    0.0000    0.0000 C   0  0  0  0  0  0  0  0  0  0  0  0
    7.4952    0.7500    0.0000 C   0  0  0  0  0  0  0  0  0  0  0  0
    8.2452   -0.5490    0.0000 F   0  0  0  0  0  0  0  0  0  0  0  0
    6.7452    2.0490    0.0000 F   0  0  0  0  0  0  0  0  0  0  0  0
    8.7942    1.5000    0.0000 C   0  0  0  0  0  0  0  0  0  0  0  0
    8.7942    3.0000    0.0000 F   0  0  0  0  0  0  0  0  0  0  0  0
   10.0933    0.7500    0.0000 F   0  0  0  0  0  0  0  0  0  0  0  0
  1  2  2  0
  2  3  1  0
  2  4  1  0
  2  5  1  0
  6  7  1  0
  7  8  1  0
  8  9  1  0
  8 10  1  0
  8 11  1  0
 11 12  1  0
 11 13  1  0
 14 15  1  0
 15 16  1  0
 16 17  1  0
 16 18  1  0
 16 19  1  0
 19 20  1  0
 19 21  1  0
 22 23  1  0
 23 24  1  0
 24 25  1  0
 24 26  1  0
 24 27  1  0
 27 28  1  0
 27 29  1  0
M  END
$$$$

     RDKit          2D

 16 15  0  0  0  0  0  0  0  0999 V2000
    0.0000    0.0000    0.0000 C   0  0  0  0  0  0  0  0  0  0  0  0
    1.2990    0.7500    0.0000 O   0  0  0  0  0  0  0  0  0  0  0  0
    2.5981   -0.0000    0.0000 C   0  0  0  0  0  0  0  0  0  0  0  0
    2.5981   -1.5000    0.0000 O   0  0  0  0  0  0  0  0  0  0  0  0
    3.8971    0.7500    0.0000 C   0  0  0  0  0  0  0  0  0  0  0  0
    4.6471   -0.5490    0.0000 F   0  0  0  0  0  0  0  0  0  0  0  0
    3.1471    2.0490    0.0000 F   0  0  0  0  0  0  0  0  0  0  0  0
    5.1962    1.5000    0.0000 C   0  0  0  0  0  0  0  0  0  0  0  0
    4.4462    2.7990    0.0000 F   0  0  0  0  0  0  0  0  0  0  0  0
    5.9462    0.2010    0.0000 F   0  0  0  0  0  0  0  0  0  0  0  0
    6.4952    2.2500    0.0000 C   0  0  0  0  0  0  0  0  0  0  0  0
    7.2452    0.9510    0.0000 F   0  0  0  0  0  0  0  0  0  0  0  0
    5.7452    3.5490    0.0000 F   0  0  0  0  0  0  0  0  0  0  0  0
    7.7942    3.0000    0.0000 C   0  0  0  0  0  0  0  0  0  0  0  0
    7.7942    4.5000    0.0000 O   0  0  0  0  0  0  0  0  0  0  0  0
    9.0933    2.2500    0.0000 Cl  0  0  0  0  0  0  0  0  0  0  0  0
  1  2  1  0
  2  3  1  0
  3  4  2  0
  3  5  1  0
  5  6  1  0
  5  7  1  0
  5  8  1  0
  8  9  1  0
  8 10  1  0
  8 11  1  0
 11 12  1  0
 11 13  1  0
 11 14  1  0
 14 15  2  0
 14 16  1  0
M  END
$$$$

     RDKit          2D

 43 46  0  0  0  0  0  0  0  0999 V2000
   -6.6286   -9.0170    0.0000 C   0  0  0  0  0  0  0  0  0  0  0  0
   -5.2020   -8.5535    0.0000 C   0  0  0  0  0  0  0  0  0  0  0  0
   -4.0873   -9.5572    0.0000 O   0  0  0  0  0  0  0  0  0  0  0  0
   -4.8901   -7.0863    0.0000 O   0  0  0  0  0  0  0  0  0  0  0  0
   -3.4635   -6.6227    0.0000 C   0  0  0  0  0  0  0  0  0  0  0  0
   -2.2500   -7.5044    0.0000 C   0  0  0  0  0  0  0  0  0  0  0  0
   -1.0365   -6.6227    0.0000 C   0  0  0  0  0  0  0  0  0  0  0  0
   -1.5000   -5.1962    0.0000 C   0  0  0  0  0  0  0  0  0  0  0  0
   -0.7500   -3.8971    0.0000 C   0  0  0  0  0  0  0  0  0  0  0  0
    0.7500   -3.8971    0.0000 C   0  0  0  0  0  0  0  0  0  0  0  0
    1.5000   -5.1962    0.0000 C   0  0  0  0  0  0  0  0  0  0  0  0
    3.0000   -5.1962    0.0000 C   0  0  0  0  0  0  0  0  0  0  0  0
    3.7500   -6.4952    0.0000 C   0  0  0  0  0  0  0  0  0  0  0  0
    5.2500   -6.4952    0.0000 C   0  0  0  0  0  0  0  0  0  0  0  0
    6.0000   -7.7942    0.0000 C   0  0  0  0  0  0  0  0  0  0  0  0
    7.5000   -7.7942    0.0000 C   0  0  0  0  0  0  0  0  0  0  0  0
    8.2500   -9.0933    0.0000 C   0  0  0  0  0  0  0  0  0  0  0  0
    9.7500   -9.0933    0.0000 C   0  0  0  0  0  0  0  0  0  0  0  0
   10.5000  -10.3923    0.0000 C   0  0  0  0  0  0  0  0  0  0  0  0
   12.0000  -10.3923    0.0000 S   0  0  0  0  0  0  0  0  0  0  0  0
   12.7500  -11.6913    0.0000 C   0  0  0  0  0  0  0  0  0  0  0  0
   14.2500  -11.6913    0.0000 C   0  0  0  0  0  0  0  0  0  0  0  0
   15.0000  -12.9904    0.0000 C   0  0  0  0  0  0  0  0  0  0  0  0
   16.5000  -12.9904    0.0000 C   0  0  0  0  0  0  0  0  0  0  0  0
   16.5000  -14.4904    0.0000 F   0  0  0  0  0  0  0  0  0  0  0  0
   16.5000  -11.4904    0.0000 F   0  0  0  0  0  0  0  0  0  0  0  0
   18.0000  -12.9904    0.0000 C   0  0  0  0  0  0  0  0  0  0  0  0
   19.5000  -12.9904    0.0000 F   0  0  0  0  0  0  0  0  0  0  0  0
   18.0000  -11.4904    0.0000 F   0  0  0  0  0  0  0  0  0  0  0  0
   18.0000  -14.4904    0.0000 F   0  0  0  0  0  0  0  0  0  0  0  0
    1.5000   -2.5981    0.0000 C   0  0  0  0  0  0  0  0  0  0  0  0
    0.7500   -1.2990    0.0000 C   0  0  0  0  0  0  0  0  0  0  0  0
    1.5000    0.0000    0.0000 C   0  0  0  0  0  0  0  0  0  0  0  0
    0.7500    1.2990    0.0000 C   0  0  0  0  0  0  0  0  0  0  0  0
    1.5000    2.5981    0.0000 O   0  0  0  0  0  0  0  0  0  0  0  0
   -0.7500    1.2990    0.0000 C   0  0  0  0  0  0  0  0  0  0  0  0
   -1.5000    0.0000    0.0000 C   0  0  0  0  0  0  0  0  0  0  0  0
   -0.7500   -1.2990    0.0000 C   0  0  0  0  0  0  0  0  0  0  0  0
   -1.5000   -2.5981    0.0000 C   0  0  0  0  0  0  0  0  0  0  0  0
   -3.0000   -2.5981    0.0000 C   0  0  0  0  0  0  0  0  0  0  0  0
   -3.7500   -3.8971    0.0000 C   0  0  0  0  0  0  0  0  0  0  0  0
   -3.0000   -5.1962    0.0000 C   0  0  0  0  0  0  0  0  0  0  0  0
   -4.4918   -5.3529    0.0000 C   0  0  0  0  0  0  0  0  0  0  0  0
  1  2  1  0
  2  3  2  0
  2  4  1  0
  5  4  1  6
  5  6  1  0
  6  7  1  0
  8  7  1  6
  8  9  1  0
  9 10  1  1
 10 11  1  1
 11 12  1  0
 12 13  1  0
 13 14  1  0
 14 15  1  0
 15 16  1  0
 16 17  1  0
 17 18  1  0
 18 19  1  0
 19 20  1  0
 20 21  1  0
 21 22  1  0
 22 23  1  0
 23 24  1  0
 24 25  1  0
 24 26  1  0
 24 27  1  0
 27 28  1  0
 27 29  1  0
 27 30  1  0
 10 31  1  0
 31 32  1  0
 32 33  2  0
 33 34  1  0
 34 35  1  0
 34 36  2  0
 36 37  1  0
 37 38  2  0
 38 39  1  0
 39 40  1  6
 40 41  1  0
 41 42  1  0
 42 43  1  6
 42  5  1  0
 42  8  1  0
 39  9  1  0
 38 32  1  0
M  END
$$$$

     RDKit          2D

 36 35  0  0  0  0  0  0  0  0999 V2000
    7.0981    4.0981    0.0000 C   0  0  0  0  0  0  0  0  0  0  0  0
    5.7990    3.3481    0.0000 N   0  0  0  0  0  0  0  0  0  0  0  0
    4.5000    2.5981    0.0000 C   0  0  0  0  0  0  0  0  0  0  0  0
    6.5490    2.0490    0.0000 C   0  0  0  0  0  0  0  0  0  0  0  0
    5.0490    4.6471    0.0000 C   0  0  0  0  0  0  0  0  0  0  0  0
    3.5490    4.6471    0.0000 C   0  0  0  0  0  0  0  0  0  0  0  0
    2.7990    5.9462    0.0000 C   0  0  0  0  0  0  0  0  0  0  0  0
    1.2990    5.9462    0.0000 N   0  0  0  0  0  0  0  0  0  0  0  0
    0.5490    7.2452    0.0000 S   0  0  0  0  0  0  0  0  0  0  0  0
    1.8481    7.9952    0.0000 O   0  0  0  0  0  0  0  0  0  0  0  0
   -0.0876    6.7654    0.0000 O   0  0  0  0  0  0  0  0  0  0  0  0
   -0.2010    8.5442    0.0000 C   0  0  0  0  0  0  0  0  0  0  0  0
    1.0981    9.2942    0.0000 F   0  0  0  0  0  0  0  0  0  0  0  0
   -0.9510    9.8433    0.0000 F   0  0  0  0  0  0  0  0  0  0  0  0
   -1.5000    7.7942    0.0000 C   0  0  0  0  0  0  0  0  0  0  0  0
   -1.1539    6.9789    0.0000 F   0  0  0  0  0  0  0  0  0  0  0  0
   -2.2500    9.0933    0.0000 F   0  0  0  0  0  0  0  0  0  0  0  0
   -2.7990    7.0442    0.0000 C   0  0  0  0  0  0  0  0  0  0  0  0
   -2.0490    5.7452    0.0000 F   0  0  0  0  0  0  0  0  0  0  0  0
   -3.5490    8.3433    0.0000 F   0  0  0  0  0  0  0  0  0  0  0  0
   -4.0981    6.2942    0.0000 C   0  0  0  0  0  0  0  0  0  0  0  0
   -4.8481    7.5933    0.0000 F   0  0  0  0  0  0  0  0  0  0  0  0
   -3.3481    4.9952    0.0000 F   0  0  0  0  0  0  0  0  0  0  0  0
   -5.3971    5.5442    0.0000 C   0  0  0  0  0  0  0  0  0  0  0  0
   -6.1471    6.8433    0.0000 F   0  0  0  0  0  0  0  0  0  0  0  0
   -4.6471    4.2452    0.0000 F   0  0  0  0  0  0  0  0  0  0  0  0
   -6.6962    4.7942    0.0000 C   0  0  0  0  0  0  0  0  0  0  0  0
   -5.9462    3.4952    0.0000 F   0  0  0  0  0  0  0  0  0  0  0  0
   -7.4462    6.0933    0.0000 F   0  0  0  0  0  0  0  0  0  0  0  0
   -7.9952    4.0442    0.0000 C   0  0  0  0  0  0  0  0  0  0  0  0
   -8.7452    5.3433    0.0000 F   0  0  0  0  0  0  0  0  0  0  0  0
   -7.2452    2.7452    0.0000 F   0  0  0  0  0  0  0  0  0  0  0  0
   -9.2942    3.2942    0.0000 C   0  0  0  0  0  0  0  0  0  0  0  0
  -10.5933    2.5442    0.0000 F   0  0  0  0  0  0  0  0  0  0  0  0
   -8.5442    1.9952    0.0000 F   0  0  0  0  0  0  0  0  0  0  0  0
  -10.0442    4.5933    0.0000 F   0  0  0  0  0  0  0  0  0  0  0  0
  1  2  1  0
  2  3  1  0
  2  4  1  0
  2  5  1  0
  5  6  1  0
  6  7  1  0
  7  8  1  0
  8  9  1  0
  9 10  2  0
  9 11  2  0
  9 12  1  0
 12 13  1  0
 12 14  1  0
 12 15  1  0
 15 16  1  0
 15 17  1  0
 15 18  1  0
 18 19  1  0
 18 20  1  0
 18 21  1  0
 21 22  1  0
 21 23  1  0
 21 24  1  0
 24 25  1  0
 24 26  1  0
 24 27  1  0
 27 28  1  0
 27 29  1  0
 27 30  1  0
 30 31  1  0
 30 32  1  0
 30 33  1  0
 33 34  1  0
 33 35  1  0
 33 36  1  0
M  CHG  1   2   1
M  END
$$$$

     RDKit          2D

  7  6  0  0  0  0  0  0  0  0999 V2000
   -1.2990    0.7500    0.0000 F   0  0  0  0  0  0  0  0  0  0  0  0
    0.0000    0.0000    0.0000 C   0  0  0  0  0  0  0  0  0  0  0  0
   -0.0000   -1.5000    0.0000 Br  0  0  0  0  0  0  0  0  0  0  0  0
    1.2990    0.7500    0.0000 C   0  0  0  0  0  0  0  0  0  0  0  0
    2.5981    1.5000    0.0000 F   0  0  0  0  0  0  0  0  0  0  0  0
    2.0490   -0.5490    0.0000 F   0  0  0  0  0  0  0  0  0  0  0  0
    0.5490    2.0490    0.0000 F   0  0  0  0  0  0  0  0  0  0  0  0
  1  2  1  0
  2  3  1  0
  2  4  1  0
  4  5  1  0
  4  6  1  0
  4  7  1  0
M  END
$$$$

     RDKit          2D

 25 24  0  0  0  0  0  0  0  0999 V2000
   -1.2990    0.7500    0.0000 O   0  0  0  0  0  0  0  0  0  0  0  0
    0.0000    0.0000    0.0000 C   0  0  0  0  0  0  0  0  0  0  0  0
   -0.0000   -1.5000    0.0000 O   0  0  0  0  0  0  0  0  0  0  0  0
   -1.2990   -2.2500    0.0000 C   0  0  0  0  0  0  0  0  0  0  0  0
   -2.5981   -1.5000    0.0000 O   0  0  0  0  0  0  0  0  0  0  0  0
   -1.2990   -3.7500    0.0000 C   0  0  0  0  0  0  0  0  0  0  0  0
   -2.7990   -3.7500    0.0000 F   0  0  0  0  0  0  0  0  0  0  0  0
    0.2010   -3.7500    0.0000 F   0  0  0  0  0  0  0  0  0  0  0  0
   -1.2990   -5.2500    0.0000 C   0  0  0  0  0  0  0  0  0  0  0  0
    0.2010   -5.2500    0.0000 F   0  0  0  0  0  0  0  0  0  0  0  0
   -2.7990   -5.2500    0.0000 F   0  0  0  0  0  0  0  0  0  0  0  0
   -1.2990   -6.7500    0.0000 C   0  0  0  0  0  0  0  0  0  0  0  0
   -1.2990   -8.2500    0.0000 F   0  0  0  0  0  0  0  0  0  0  0  0
   -2.7990   -6.7500    0.0000 F   0  0  0  0  0  0  0  0  0  0  0  0
    0.2010   -6.7500    0.0000 F   0  0  0  0  0  0  0  0  0  0  0  0
    1.2990    0.7500    0.0000 C   0  0  0  0  0  0  0  0  0  0  0  0
    2.0490   -0.5490    0.0000 F   0  0  0  0  0  0  0  0  0  0  0  0
    0.5490    2.0490    0.0000 F   0  0  0  0  0  0  0  0  0  0  0  0
    2.5981    1.5000    0.0000 C   0  0  0  0  0  0  0  0  0  0  0  0
    1.8481    2.7990    0.0000 F   0  0  0  0  0  0  0  0  0  0  0  0
    3.3481    0.2010    0.0000 F   0  0  0  0  0  0  0  0  0  0  0  0
    3.8971    2.2500    0.0000 C   0  0  0  0  0  0  0  0  0  0  0  0
    5.1962    3.0000    0.0000 F   0  0  0  0  0  0  0  0  0  0  0  0
    4.6471    0.9510    0.0000 F   0  0  0  0  0  0  0  0  0  0  0  0
    3.1471    3.5490    0.0000 F   0  0  0  0  0  0  0  0  0  0  0  0
  1  2  2  0
  2  3  1  0
  3  4  1  0
  4  5  2  0
  4  6  1  0
  6  7  1  0
  6  8  1  0
  6  9  1  0
  9 10  1  0
  9 11  1  0
  9 12  1  0
 12 13  1  0
 12 14  1  0
 12 15  1  0
  2 16  1  0
 16 17  1  0
 16 18  1  0
 16 19  1  0
 19 20  1  0
 19 21  1  0
 19 22  1  0
 22 23  1  0
 22 24  1  0
 22 25  1  0
M  END
$$$$

     RDKit          2D

 43 42  0  0  0  0  0  0  0  0999 V2000
    6.4952   -3.7500    0.0000 C   0  0  0  0  0  0  0  0  0  0  0  0
    6.4952   -2.2500    0.0000 N   0  0  0  0  0  0  0  0  0  0  0  0
    5.2973   -1.3472    0.0000 C   0  0  0  0  0  0  0  0  0  0  0  0
    7.7942   -1.5000    0.0000 C   0  0  0  0  0  0  0  0  0  0  0  0
    7.7942    0.0000    0.0000 C   0  0  0  0  0  0  0  0  0  0  0  0
    9.0933    0.7500    0.0000 C   0  0  0  0  0  0  0  0  0  0  0  0
    9.0933    2.2500    0.0000 N   0  0  0  0  0  0  0  0  0  0  0  0
   10.3923    3.0000    0.0000 C   0  0  0  0  0  0  0  0  0  0  0  0
   10.3923    4.5000    0.0000 C   0  0  0  0  0  0  0  0  0  0  0  0
    9.0933    5.2500    0.0000 O   0  0  0  0  0  0  0  0  0  0  0  0
   11.6913    5.2500    0.0000 C   0  0  0  0  0  0  0  0  0  0  0  0
   11.6913    6.7500    0.0000 S   0  0  0  0  0  0  0  0  0  0  0  0
   13.1913    6.7500    0.0000 O   0  0  0  0  0  0  0  0  0  0  0  0
   10.1913    6.7500    0.0000 O   0  0  0  0  0  0  0  0  0  0  0  0
   11.6913    8.2500    0.0000 O   0  0  0  0  0  0  0  0  0  0  0  0
    7.7942    3.0000    0.0000 S   0  0  0  0  0  0  0  0  0  0  0  0
    7.4828    2.2662    0.0000 O   0  0  0  0  0  0  0  0  0  0  0  0
    8.5442    4.2990    0.0000 O   0  0  0  0  0  0  0  0  0  0  0  0
    6.4952    3.7500    0.0000 C   0  0  0  0  0  0  0  0  0  0  0  0
    7.2452    5.0490    0.0000 F   0  0  0  0  0  0  0  0  0  0  0  0
    5.1962    4.5000    0.0000 F   0  0  0  0  0  0  0  0  0  0  0  0
    5.7452    2.4510    0.0000 C   0  0  0  0  0  0  0  0  0  0  0  0
    4.4462    3.2010    0.0000 F   0  0  0  0  0  0  0  0  0  0  0  0
    6.4526    1.9179    0.0000 F   0  0  0  0  0  0  0  0  0  0  0  0
    4.9952    1.1519    0.0000 C   0  0  0  0  0  0  0  0  0  0  0  0
    3.6962    1.9019    0.0000 F   0  0  0  0  0  0  0  0  0  0  0  0
    6.2942    0.4019    0.0000 F   0  0  0  0  0  0  0  0  0  0  0  0
    4.2452   -0.1471    0.0000 C   0  0  0  0  0  0  0  0  0  0  0  0
    2.9462    0.6029    0.0000 F   0  0  0  0  0  0  0  0  0  0  0  0
    5.6260   -0.7332    0.0000 F   0  0  0  0  0  0  0  0  0  0  0  0
    3.4952   -1.4462    0.0000 C   0  0  0  0  0  0  0  0  0  0  0  0
    4.7942   -2.1962    0.0000 F   0  0  0  0  0  0  0  0  0  0  0  0
    2.1962   -0.6962    0.0000 F   0  0  0  0  0  0  0  0  0  0  0  0
    2.7452   -2.7452    0.0000 C   0  0  0  0  0  0  0  0  0  0  0  0
    4.0442   -3.4952    0.0000 F   0  0  0  0  0  0  0  0  0  0  0  0
    1.4462   -1.9952    0.0000 F   0  0  0  0  0  0  0  0  0  0  0  0
    1.9952   -4.0442    0.0000 C   0  0  0  0  0  0  0  0  0  0  0  0
    0.6962   -3.2942    0.0000 F   0  0  0  0  0  0  0  0  0  0  0  0
    3.2942   -4.7942    0.0000 F   0  0  0  0  0  0  0  0  0  0  0  0
    1.2452   -5.3433    0.0000 C   0  0  0  0  0  0  0  0  0  0  0  0
    0.4952   -6.6423    0.0000 F   0  0  0  0  0  0  0  0  0  0  0  0
    2.5442   -6.0933    0.0000 F   0  0  0  0  0  0  0  0  0  0  0  0
   -0.0538   -4.5933    0.0000 F   0  0  0  0  0  0  0  0  0  0  0  0
  1  2  1  0
  2  3  1  0
  2  4  1  0
  4  5  1  0
  5  6  1  0
  6  7  1  0
  7  8  1  0
  8  9  1  0
  9 10  1  0
  9 11  1  0
 11 12  1  0
 12 13  2  0
 12 14  2  0
 12 15  1  0
  7 16  1  0
 16 17  2  0
 16 18  2  0
 16 19  1  0
 19 20  1  0
 19 21  1  0
 19 22  1  0
 22 23  1  0
 22 24  1  0
 22 25  1  0
 25 26  1  0
 25 27  1  0
 25 28  1  0
 28 29  1  0
 28 30  1  0
 28 31  1  0
 31 32  1  0
 31 33  1  0
 31 34  1  0
 34 35  1  0
 34 36  1  0
 34 37  1  0
 37 38  1  0
 37 39  1  0
 37 40  1  0
 40 41  1  0
 40 42  1  0
 40 43  1  0
M  END
$$$$

     RDKit          2D

 27 26  0  0  0  0  0  0  0  0999 V2000
    7.0981    4.0981    0.0000 C   0  0  0  0  0  0  0  0  0  0  0  0
    5.7990    3.3481    0.0000 N   0  0  0  0  0  0  0  0  0  0  0  0
    4.5000    2.5981    0.0000 C   0  0  0  0  0  0  0  0  0  0  0  0
    6.5490    2.0490    0.0000 C   0  0  0  0  0  0  0  0  0  0  0  0
    5.0490    4.6471    0.0000 C   0  0  0  0  0  0  0  0  0  0  0  0
    3.5490    4.6471    0.0000 C   0  0  0  0  0  0  0  0  0  0  0  0
    2.7990    5.9462    0.0000 C   0  0  0  0  0  0  0  0  0  0  0  0
    1.2990    5.9462    0.0000 N   0  0  0  0  0  0  0  0  0  0  0  0
    0.5490    7.2452    0.0000 S   0  0  0  0  0  0  0  0  0  0  0  0
    1.8481    7.9952    0.0000 O   0  0  0  0  0  0  0  0  0  0  0  0
   -0.0876    6.7654    0.0000 O   0  0  0  0  0  0  0  0  0  0  0  0
   -0.2010    8.5442    0.0000 C   0  0  0  0  0  0  0  0  0  0  0  0
    1.0981    9.2942    0.0000 F   0  0  0  0  0  0  0  0  0  0  0  0
   -0.9510    9.8433    0.0000 F   0  0  0  0  0  0  0  0  0  0  0  0
   -1.5000    7.7942    0.0000 C   0  0  0  0  0  0  0  0  0  0  0  0
   -1.1539    6.9789    0.0000 F   0  0  0  0  0  0  0  0  0  0  0  0
   -2.2500    9.0933    0.0000 F   0  0  0  0  0  0  0  0  0  0  0  0
   -2.7990    7.0442    0.0000 C   0  0  0  0  0  0  0  0  0  0  0  0
   -2.0490    5.7452    0.0000 F   0  0  0  0  0  0  0  0  0  0  0  0
   -3.5490    8.3433    0.0000 F   0  0  0  0  0  0  0  0  0  0  0  0
   -4.0981    6.2942    0.0000 C   0  0  0  0  0  0  0  0  0  0  0  0
   -3.3481    4.9952    0.0000 F   0  0  0  0  0  0  0  0  0  0  0  0
   -4.8481    7.5933    0.0000 F   0  0  0  0  0  0  0  0  0  0  0  0
   -5.3971    5.5442    0.0000 C   0  0  0  0  0  0  0  0  0  0  0  0
   -6.6962    4.7942    0.0000 F   0  0  0  0  0  0  0  0  0  0  0  0
   -6.1471    6.8433    0.0000 F   0  0  0  0  0  0  0  0  0  0  0  0
   -4.6471    4.2452    0.0000 F   0  0  0  0  0  0  0  0  0  0  0  0
  1  2  1  0
  2  3  1  0
  2  4  1  0
  2  5  1  0
  5  6  1  0
  6  7  1  0
  7  8  1  0
  8  9  1  0
  9 10  2  0
  9 11  2  0
  9 12  1  0
 12 13  1  0
 12 14  1  0
 12 15  1  0
 15 16  1  0
 15 17  1  0
 15 18  1  0
 18 19  1  0
 18 20  1  0
 18 21  1  0
 21 22  1  0
 21 23  1  0
 21 24  1  0
 24 25  1  0
 24 26  1  0
 24 27  1  0
M  CHG  1   2   1
M  END
$$$$

     RDKit          2D

 32 31  0  0  0  0  0  0  0  0999 V2000
    0.0000    0.0000    0.0000 C   0  0  0  0  0  0  0  0  0  0  0  0
    1.2990    0.7500    0.0000 N   0  0  0  0  0  0  0  0  0  0  0  0
    2.5981   -0.0000    0.0000 C   0  0  0  0  0  0  0  0  0  0  0  0
    1.2990    2.2500    0.0000 C   0  0  0  0  0  0  0  0  0  0  0  0
    2.5981    3.0000    0.0000 C   0  0  0  0  0  0  0  0  0  0  0  0
    2.5981    4.5000    0.0000 C   0  0  0  0  0  0  0  0  0  0  0  0
    3.8971    5.2500    0.0000 N   0  0  0  0  0  0  0  0  0  0  0  0
    3.8971    6.7500    0.0000 O   0  0  0  0  0  0  0  0  0  0  0  0
    5.1962    4.5000    0.0000 S   0  0  0  0  0  0  0  0  0  0  0  0
    4.4462    3.2010    0.0000 O   0  0  0  0  0  0  0  0  0  0  0  0
    5.9462    5.7990    0.0000 O   0  0  0  0  0  0  0  0  0  0  0  0
    6.4952    3.7500    0.0000 C   0  0  0  0  0  0  0  0  0  0  0  0
    6.4952    2.2500    0.0000 C   0  0  0  0  0  0  0  0  0  0  0  0
    7.7942    1.5000    0.0000 C   0  0  0  0  0  0  0  0  0  0  0  0
    7.0442    0.2010    0.0000 F   0  0  0  0  0  0  0  0  0  0  0  0
    8.5442    2.7990    0.0000 F   0  0  0  0  0  0  0  0  0  0  0  0
    9.0933    0.7500    0.0000 C   0  0  0  0  0  0  0  0  0  0  0  0
    9.8433    2.0490    0.0000 F   0  0  0  0  0  0  0  0  0  0  0  0
    8.3433   -0.5490    0.0000 F   0  0  0  0  0  0  0  0  0  0  0  0
   10.3923    0.0000    0.0000 C   0  0  0  0  0  0  0  0  0  0  0  0
    9.6423   -1.2990    0.0000 F   0  0  0  0  0  0  0  0  0  0  0  0
   11.1423    1.2990    0.0000 F   0  0  0  0  0  0  0  0  0  0  0  0
   11.6913   -0.7500    0.0000 C   0  0  0  0  0  0  0  0  0  0  0  0
   12.4413    0.5490    0.0000 F   0  0  0  0  0  0  0  0  0  0  0  0
   10.9413   -2.0490    0.0000 F   0  0  0  0  0  0  0  0  0  0  0  0
   12.9904   -1.5000    0.0000 C   0  0  0  0  0  0  0  0  0  0  0  0
   12.2404   -2.7990    0.0000 F   0  0  0  0  0  0  0  0  0  0  0  0
   13.7404   -0.2010    0.0000 F   0  0  0  0  0  0  0  0  0  0  0  0
   14.2894   -2.2500    0.0000 C   0  0  0  0  0  0  0  0  0  0  0  0
   15.5885   -3.0000    0.0000 F   0  0  0  0  0  0  0  0  0  0  0  0
   15.0394   -0.9510    0.0000 F   0  0  0  0  0  0  0  0  0  0  0  0
   13.5394   -3.5490    0.0000 F   0  0  0  0  0  0  0  0  0  0  0  0
  1  2  1  0
  2  3  1  0
  2  4  1  0
  4  5  1  0
  5  6  1  0
  6  7  1  0
  7  8  1  0
  7  9  1  0
  9 10  2  0
  9 11  2  0
  9 12  1  0
 12 13  1  0
 13 14  1  0
 14 15  1  0
 14 16  1  0
 14 17  1  0
 17 18  1  0
 17 19  1  0
 17 20  1  0
 20 21  1  0
 20 22  1  0
 20 23  1  0
 23 24  1  0
 23 25  1  0
 23 26  1  0
 26 27  1  0
 26 28  1  0
 26 29  1  0
 29 30  1  0
 29 31  1  0
 29 32  1  0
M  END
$$$$

     RDKit          2D

 12 12  0  0  0  0  0  0  0  0999 V2000
    2.1213    1.0607    0.0000 F   0  0  0  0  0  0  0  0  0  0  0  0
    1.0607    0.0000    0.0000 C   0  0  0  0  0  0  0  0  0  0  0  0
    2.1213   -1.0607    0.0000 F   0  0  0  0  0  0  0  0  0  0  0  0
   -0.0000   -1.0607    0.0000 C   0  0  0  0  0  0  0  0  0  0  0  0
    1.0607   -2.1213    0.0000 F   0  0  0  0  0  0  0  0  0  0  0  0
   -1.0607   -2.1213    0.0000 F   0  0  0  0  0  0  0  0  0  0  0  0
   -1.0607    0.0000    0.0000 C   0  0  0  0  0  0  0  0  0  0  0  0
   -2.1213   -1.0607    0.0000 F   0  0  0  0  0  0  0  0  0  0  0  0
   -2.1213    1.0607    0.0000 Cl  0  0  0  0  0  0  0  0  0  0  0  0
    0.0000    1.0607    0.0000 C   0  0  0  0  0  0  0  0  0  0  0  0
   -1.0607    2.1213    0.0000 F   0  0  0  0  0  0  0  0  0  0  0  0
    1.0607    2.1213    0.0000 Cl  0  0  0  0  0  0  0  0  0  0  0  0
  1  2  1  0
  2  3  1  0
  2  4  1  0
  4  5  1  0
  4  6  1  0
  4  7  1  0
  7  8  1  0
  7  9  1  0
  7 10  1  0
 10 11  1  0
 10 12  1  0
 10  2  1  0
M  END
$$$$

     RDKit          2D

 22 21  0  0  0  0  0  0  0  0999 V2000
    0.0000    0.0000    0.0000 C   0  0  0  0  0  0  0  0  0  0  0  0
    1.2990    0.7500    0.0000 C   0  0  0  0  0  0  0  0  0  0  0  0
    2.5981   -0.0000    0.0000 C   0  0  0  0  0  0  0  0  0  0  0  0
    3.8971    0.7500    0.0000 C   0  0  0  0  0  0  0  0  0  0  0  0
    4.6471   -0.5490    0.0000 F   0  0  0  0  0  0  0  0  0  0  0  0
    3.1471    2.0490    0.0000 F   0  0  0  0  0  0  0  0  0  0  0  0
    5.1962    1.5000    0.0000 C   0  0  0  0  0  0  0  0  0  0  0  0
    4.4462    2.7990    0.0000 F   0  0  0  0  0  0  0  0  0  0  0  0
    5.9462    0.2010    0.0000 F   0  0  0  0  0  0  0  0  0  0  0  0
    6.4952    2.2500    0.0000 C   0  0  0  0  0  0  0  0  0  0  0  0
    7.2452    0.9510    0.0000 F   0  0  0  0  0  0  0  0  0  0  0  0
    5.7452    3.5490    0.0000 F   0  0  0  0  0  0  0  0  0  0  0  0
    7.7942    3.0000    0.0000 C   0  0  0  0  0  0  0  0  0  0  0  0
    7.0442    4.2990    0.0000 F   0  0  0  0  0  0  0  0  0  0  0  0
    8.5442    1.7010    0.0000 F   0  0  0  0  0  0  0  0  0  0  0  0
    9.0933    3.7500    0.0000 C   0  0  0  0  0  0  0  0  0  0  0  0
    9.8433    2.4510    0.0000 F   0  0  0  0  0  0  0  0  0  0  0  0
    8.3433    5.0490    0.0000 F   0  0  0  0  0  0  0  0  0  0  0  0
   10.3923    4.5000    0.0000 C   0  0  0  0  0  0  0  0  0  0  0  0
   11.6913    5.2500    0.0000 F   0  0  0  0  0  0  0  0  0  0  0  0
    9.6423    5.7990    0.0000 F   0  0  0  0  0  0  0  0  0  0  0  0
   11.1423    3.2010    0.0000 F   0  0  0  0  0  0  0  0  0  0  0  0
  1  2  1  0
  2  3  1  0
  3  4  1  0
  4  5  1  0
  4  6  1  0
  4  7  1  0
  7  8  1  0
  7  9  1  0
  7 10  1  0
 10 11  1  0
 10 12  1  0
 10 13  1  0
 13 14  1  0
 13 15  1  0
 13 16  1  0
 16 17  1  0
 16 18  1  0
 16 19  1  0
 19 20  1  0
 19 21  1  0
 19 22  1  0
M  END
$$$$

     RDKit          2D

 23 22  0  0  0  0  0  0  0  0999 V2000
   -1.5000   -0.0000    0.0000 F   0  0  0  0  0  0  0  0  0  0  0  0
    0.0000   -0.0000    0.0000 C   0  0  0  0  0  0  0  0  0  0  0  0
    0.0000    1.5000    0.0000 F   0  0  0  0  0  0  0  0  0  0  0  0
   -0.0000   -1.5000    0.0000 F   0  0  0  0  0  0  0  0  0  0  0  0
    1.5000    0.0000    0.0000 C   0  0  0  0  0  0  0  0  0  0  0  0
    1.5000    1.5000    0.0000 F   0  0  0  0  0  0  0  0  0  0  0  0
    1.3920   -0.8791    0.0000 F   0  0  0  0  0  0  0  0  0  0  0  0
    3.0000    0.0000    0.0000 C   0  0  0  0  0  0  0  0  0  0  0  0
    3.0000    1.5000    0.0000 F   0  0  0  0  0  0  0  0  0  0  0  0
    3.0000   -1.5000    0.0000 C   0  0  0  0  0  0  0  0  0  0  0  0
    3.0000   -3.0000    0.0000 F   0  0  0  0  0  0  0  0  0  0  0  0
    2.1209   -1.6080    0.0000 F   0  0  0  0  0  0  0  0  0  0  0  0
    3.7735   -1.6929    0.0000 F   0  0  0  0  0  0  0  0  0  0  0  0
    4.5000    0.0000    0.0000 C   0  0  0  0  0  0  0  0  0  0  0  0
    4.5000    1.5000    0.0000 F   0  0  0  0  0  0  0  0  0  0  0  0
    6.0000    0.0000    0.0000 C   0  0  0  0  0  0  0  0  0  0  0  0
    7.5000    0.0000    0.0000 F   0  0  0  0  0  0  0  0  0  0  0  0
    6.0000    1.5000    0.0000 F   0  0  0  0  0  0  0  0  0  0  0  0
    6.1828   -1.4888    0.0000 F   0  0  0  0  0  0  0  0  0  0  0  0
    4.5000   -1.5000    0.0000 C   0  0  0  0  0  0  0  0  0  0  0  0
    4.5000   -3.0000    0.0000 F   0  0  0  0  0  0  0  0  0  0  0  0
    5.9888   -1.6828    0.0000 F   0  0  0  0  0  0  0  0  0  0  0  0
    3.0446   -1.8630    0.0000 F   0  0  0  0  0  0  0  0  0  0  0  0
  1  2  1  0
  2  3  1  0
  2  4  1  0
  2  5  1  0
  5  6  1  0
  5  7  1  0
  5  8  1  0
  8  9  1  0
  8 10  1  0
 10 11  1  0
 10 12  1  0
 10 13  1  0
  8 14  1  0
 14 15  1  0
 14 16  1  0
 16 17  1  0
 16 18  1  0
 16 19  1  0
 14 20  1  0
 20 21  1  0
 20 22  1  0
 20 23  1  0
M  END
$$$$

     RDKit          2D

 12 11  0  0  0  0  0  0  0  0999 V2000
   -1.2990    0.7500    0.0000 F   0  0  0  0  0  0  0  0  0  0  0  0
    0.0000    0.0000    0.0000 C   0  0  0  0  0  0  0  0  0  0  0  0
   -0.0000   -1.5000    0.0000 F   0  0  0  0  0  0  0  0  0  0  0  0
    1.2990    0.7500    0.0000 C   0  0  0  0  0  0  0  0  0  0  0  0
    1.2990    2.2500    0.0000 F   0  0  0  0  0  0  0  0  0  0  0  0
    2.5981   -0.0000    0.0000 C   0  0  0  0  0  0  0  0  0  0  0  0
    3.3481    1.2990    0.0000 F   0  0  0  0  0  0  0  0  0  0  0  0
    1.8481   -1.2990    0.0000 F   0  0  0  0  0  0  0  0  0  0  0  0
    3.8971   -0.7500    0.0000 C   0  0  0  0  0  0  0  0  0  0  0  0
    5.1962   -1.5000    0.0000 F   0  0  0  0  0  0  0  0  0  0  0  0
    3.1471   -2.0490    0.0000 F   0  0  0  0  0  0  0  0  0  0  0  0
    4.6471    0.5490    0.0000 F   0  0  0  0  0  0  0  0  0  0  0  0
  1  2  1  0
  2  3  1  0
  2  4  2  0
  4  5  1  0
  4  6  1  0
  6  7  1  0
  6  8  1  0
  6  9  1  0
  9 10  1  0
  9 11  1  0
  9 12  1  0
M  END
$$$$

     RDKit          2D

 41 40  0  0  0  0  0  0  0  0999 V2000
   -1.5000    0.0000    0.0000 F   0  0  0  0  0  0  0  0  0  0  0  0
    0.0000    0.0000    0.0000 C   0  0  0  0  0  0  0  0  0  0  0  0
    0.0000    1.5000    0.0000 F   0  0  0  0  0  0  0  0  0  0  0  0
   -0.0000   -1.5000    0.0000 F   0  0  0  0  0  0  0  0  0  0  0  0
    1.5000    0.0000    0.0000 C   0  0  0  0  0  0  0  0  0  0  0  0
    1.5000    1.5000    0.0000 F   0  0  0  0  0  0  0  0  0  0  0  0
    1.5000   -1.5000    0.0000 F   0  0  0  0  0  0  0  0  0  0  0  0
    3.0000    0.0000    0.0000 C   0  0  0  0  0  0  0  0  0  0  0  0
    3.0000   -1.5000    0.0000 F   0  0  0  0  0  0  0  0  0  0  0  0
    3.0000    1.5000    0.0000 F   0  0  0  0  0  0  0  0  0  0  0  0
    4.5000    0.0000    0.0000 C   0  0  0  0  0  0  0  0  0  0  0  0
    4.5000    1.5000    0.0000 F   0  0  0  0  0  0  0  0  0  0  0  0
    4.5000   -1.5000    0.0000 F   0  0  0  0  0  0  0  0  0  0  0  0
    6.0000    0.0000    0.0000 C   0  0  0  0  0  0  0  0  0  0  0  0
    6.0000   -1.5000    0.0000 F   0  0  0  0  0  0  0  0  0  0  0  0
    6.0000    1.5000    0.0000 F   0  0  0  0  0  0  0  0  0  0  0  0
    7.5000    0.0000    0.0000 C   0  0  0  0  0  0  0  0  0  0  0  0
    7.5000    1.5000    0.0000 F   0  0  0  0  0  0  0  0  0  0  0  0
    7.5000   -1.5000    0.0000 F   0  0  0  0  0  0  0  0  0  0  0  0
    9.0000    0.0000    0.0000 C   0  0  0  0  0  0  0  0  0  0  0  0
    9.0000    1.5000    0.0000 F   0  0  0  0  0  0  0  0  0  0  0  0
    9.0000   -1.5000    0.0000 F   0  0  0  0  0  0  0  0  0  0  0  0
   10.5000    0.0000    0.0000 C   0  0  0  0  0  0  0  0  0  0  0  0
   10.5000   -1.5000    0.0000 F   0  0  0  0  0  0  0  0  0  0  0  0
   10.5000    1.5000    0.0000 F   0  0  0  0  0  0  0  0  0  0  0  0
   12.0000    0.0000    0.0000 C   0  0  0  0  0  0  0  0  0  0  0  0
   12.0000    1.5000    0.0000 F   0  0  0  0  0  0  0  0  0  0  0  0
   12.0000   -1.5000    0.0000 F   0  0  0  0  0  0  0  0  0  0  0  0
   13.5000    0.0000    0.0000 C   0  0  0  0  0  0  0  0  0  0  0  0
   13.5000   -1.5000    0.0000 F   0  0  0  0  0  0  0  0  0  0  0  0
   13.5000    1.5000    0.0000 F   0  0  0  0  0  0  0  0  0  0  0  0
   15.0000    0.0000    0.0000 C   0  0  0  0  0  0  0  0  0  0  0  0
   15.0000    1.5000    0.0000 F   0  0  0  0  0  0  0  0  0  0  0  0
   15.0000   -1.5000    0.0000 F   0  0  0  0  0  0  0  0  0  0  0  0
   16.5000    0.0000    0.0000 C   0  0  0  0  0  0  0  0  0  0  0  0
   16.5000   -1.5000    0.0000 F   0  0  0  0  0  0  0  0  0  0  0  0
   16.5000    1.5000    0.0000 F   0  0  0  0  0  0  0  0  0  0  0  0
   18.0000    0.0000    0.0000 C   0  0  0  0  0  0  0  0  0  0  0  0
   19.5000    0.0000    0.0000 F   0  0  0  0  0  0  0  0  0  0  0  0
   18.0000    1.5000    0.0000 F   0  0  0  0  0  0  0  0  0  0  0  0
   18.0000   -1.5000    0.0000 I   0  0  0  0  0  0  0  0  0  0  0  0
  1  2  1  0
  2  3  1  0
  2  4  1  0
  2  5  1  0
  5  6  1  0
  5  7  1  0
  5  8  1  0
  8  9  1  0
  8 10  1  0
  8 11  1  0
 11 12  1  0
 11 13  1  0
 11 14  1  0
 14 15  1  0
 14 16  1  0
 14 17  1  0
 17 18  1  0
 17 19  1  0
 17 20  1  0
 20 21  1  0
 20 22  1  0
 20 23  1  0
 23 24  1  0
 23 25  1  0
 23 26  1  0
 26 27  1  0
 26 28  1  0
 26 29  1  0
 29 30  1  0
 29 31  1  0
 29 32  1  0
 32 33  1  0
 32 34  1  0
 32 35  1  0
 35 36  1  0
 35 37  1  0
 35 38  1  0
 38 39  1  0
 38 40  1  0
 38 41  1  0
M  END
$$$$

     RDKit          2D

 23 22  0  0  0  0  0  0  0  0999 V2000
   -1.5000   -0.0000    0.0000 F   0  0  0  0  0  0  0  0  0  0  0  0
    0.0000   -0.0000    0.0000 C   0  0  0  0  0  0  0  0  0  0  0  0
    0.0000    1.5000    0.0000 F   0  0  0  0  0  0  0  0  0  0  0  0
   -0.0000   -1.5000    0.0000 F   0  0  0  0  0  0  0  0  0  0  0  0
    1.5000   -0.0000    0.0000 C   0  0  0  0  0  0  0  0  0  0  0  0
    1.5000    1.5000    0.0000 F   0  0  0  0  0  0  0  0  0  0  0  0
    1.5000   -1.5000    0.0000 F   0  0  0  0  0  0  0  0  0  0  0  0
    3.0000    0.0000    0.0000 C   0  0  0  0  0  0  0  0  0  0  0  0
    2.8920   -0.8791    0.0000 F   0  0  0  0  0  0  0  0  0  0  0  0
    3.0000    1.5000    0.0000 F   0  0  0  0  0  0  0  0  0  0  0  0
    4.5000    0.0000    0.0000 C   0  0  0  0  0  0  0  0  0  0  0  0
    4.5000    1.5000    0.0000 F   0  0  0  0  0  0  0  0  0  0  0  0
    4.5000   -1.5000    0.0000 C   0  0  0  0  0  0  0  0  0  0  0  0
    4.5000   -3.0000    0.0000 F   0  0  0  0  0  0  0  0  0  0  0  0
    5.3791   -1.6080    0.0000 F   0  0  0  0  0  0  0  0  0  0  0  0
    3.6209   -1.6080    0.0000 F   0  0  0  0  0  0  0  0  0  0  0  0
    6.0000    0.0000    0.0000 C   0  0  0  0  0  0  0  0  0  0  0  0
    6.0000    1.5000    0.0000 F   0  0  0  0  0  0  0  0  0  0  0  0
    6.1080   -0.8791    0.0000 F   0  0  0  0  0  0  0  0  0  0  0  0
    7.5000    0.0000    0.0000 C   0  0  0  0  0  0  0  0  0  0  0  0
    9.0000    0.0000    0.0000 F   0  0  0  0  0  0  0  0  0  0  0  0
    7.5000   -1.5000    0.0000 F   0  0  0  0  0  0  0  0  0  0  0  0
    7.5000    1.5000    0.0000 F   0  0  0  0  0  0  0  0  0  0  0  0
  1  2  1  0
  2  3  1  0
  2  4  1  0
  2  5  1  0
  5  6  1  0
  5  7  1  0
  5  8  1  0
  8  9  1  0
  8 10  1  0
  8 11  1  0
 11 12  1  0
 11 13  1  0
 13 14  1  0
 13 15  1  0
 13 16  1  0
 11 17  1  0
 17 18  1  0
 17 19  1  0
 17 20  1  0
 20 21  1  0
 20 22  1  0
 20 23  1  0
M  END
$$$$

     RDKit          2D

 10  9  0  0  0  0  0  0  0  0999 V2000
    3.3907    0.0000    0.0000 Cl  0  0  0  0  0  0  0  0  0  0  0  0
    2.3907    1.0037    0.0000 F   0  0  0  0  0  0  0  0  0  0  0  0
    1.2760    0.0000    0.0000 C   0  0  0  0  0  0  0  0  0  0  0  0
    2.3907   -1.0037    0.0000 F   0  0  0  0  0  0  0  0  0  0  0  0
    0.3943    1.2135    0.0000 C   0  0  0  0  0  0  0  0  0  0  0  0
   -1.0323    0.7500    0.0000 N   0  0  0  0  0  0  0  0  0  0  0  0
   -1.0323   -0.7500    0.0000 C   0  0  0  0  0  0  0  0  0  0  0  0
    0.3943   -1.2135    0.0000 C   0  0  0  0  0  0  0  0  0  0  0  0
    1.6933   -1.9635    0.0000 F   0  0  0  0  0  0  0  0  0  0  0  0
   -0.2158   -2.5838    0.0000 F   0  0  0  0  0  0  0  0  0  0  0  0
  2  3  1  0
  3  4  1  0
  3  5  1  0
  5  6  1  0
  6  7  1  0
  7  8  1  0
  8  9  1  0
  8 10  1  0
  8  3  1  0
M  END
$$$$

     RDKit          2D

 14 13  0  0  0  0  0  0  0  0999 V2000
    0.0000    0.0000    0.0000 C   0  0  0  0  0  0  0  0  0  0  0  0
    1.2990    0.7500    0.0000 C   0  0  0  0  0  0  0  0  0  0  0  0
    2.5981   -0.0000    0.0000 C   0  0  0  0  0  0  0  0  0  0  0  0
    2.5981   -1.5000    0.0000 O   0  0  0  0  0  0  0  0  0  0  0  0
    3.8971    0.7500    0.0000 O   0  0  0  0  0  0  0  0  0  0  0  0
    5.1962   -0.0000    0.0000 C   0  0  0  0  0  0  0  0  0  0  0  0
    6.4952    0.7500    0.0000 C   0  0  0  0  0  0  0  0  0  0  0  0
    7.7942    1.5000    0.0000 F   0  0  0  0  0  0  0  0  0  0  0  0
    7.2452   -0.5490    0.0000 F   0  0  0  0  0  0  0  0  0  0  0  0
    5.7452    2.0490    0.0000 F   0  0  0  0  0  0  0  0  0  0  0  0
    5.1962   -1.5000    0.0000 C   0  0  0  0  0  0  0  0  0  0  0  0
    5.1962   -3.0000    0.0000 F   0  0  0  0  0  0  0  0  0  0  0  0
    6.6962   -1.5000    0.0000 F   0  0  0  0  0  0  0  0  0  0  0  0
    3.6962   -1.5000    0.0000 F   0  0  0  0  0  0  0  0  0  0  0  0
  1  2  2  0
  2  3  1  0
  3  4  2  0
  3  5  1  0
  5  6  1  0
  6  7  1  0
  7  8  1  0
  7  9  1  0
  7 10  1  0
  6 11  1  0
 11 12  1  0
 11 13  1  0
 11 14  1  0
M  END
$$$$

     RDKit          2D

 37 36  0  0  0  0  0  0  0  0999 V2000
   -0.0000   -1.5000    0.0000 F   0  0  0  0  0  0  0  0  0  0  0  0
    0.0000    0.0000    0.0000 C   0  0  0  0  0  0  0  0  0  0  0  0
   -1.2990    0.7500    0.0000 O   0  0  0  0  0  0  0  0  0  0  0  0
   -2.5981    0.0000    0.0000 C   0  0  0  0  0  0  0  0  0  0  0  0
   -1.8481   -1.2990    0.0000 F   0  0  0  0  0  0  0  0  0  0  0  0
   -3.3481    1.2990    0.0000 F   0  0  0  0  0  0  0  0  0  0  0  0
   -3.8971   -0.7500    0.0000 C   0  0  0  0  0  0  0  0  0  0  0  0
   -4.6471    0.5490    0.0000 F   0  0  0  0  0  0  0  0  0  0  0  0
   -3.1471   -2.0490    0.0000 O   0  0  0  0  0  0  0  0  0  0  0  0
   -3.8971   -3.3481    0.0000 C   0  0  0  0  0  0  0  0  0  0  0  0
   -5.2779   -2.7620    0.0000 F   0  0  0  0  0  0  0  0  0  0  0  0
   -2.5981   -4.0981    0.0000 F   0  0  0  0  0  0  0  0  0  0  0  0
   -4.6471   -4.6471    0.0000 C   0  0  0  0  0  0  0  0  0  0  0  0
   -5.9462   -3.8971    0.0000 F   0  0  0  0  0  0  0  0  0  0  0  0
   -3.3481   -5.3971    0.0000 O   0  0  0  0  0  0  0  0  0  0  0  0
   -3.3481   -6.8971    0.0000 C   0  0  0  0  0  0  0  0  0  0  0  0
   -4.1393   -6.9943    0.0000 F   0  0  0  0  0  0  0  0  0  0  0  0
   -1.8481   -6.8971    0.0000 F   0  0  0  0  0  0  0  0  0  0  0  0
   -3.3481   -8.3971    0.0000 C   0  0  0  0  0  0  0  0  0  0  0  0
   -1.8481   -8.3971    0.0000 F   0  0  0  0  0  0  0  0  0  0  0  0
   -4.8481   -8.3971    0.0000 F   0  0  0  0  0  0  0  0  0  0  0  0
   -3.3481   -9.8971    0.0000 C   0  0  0  0  0  0  0  0  0  0  0  0
   -3.3481  -11.3971    0.0000 F   0  0  0  0  0  0  0  0  0  0  0  0
   -4.8481   -9.8971    0.0000 F   0  0  0  0  0  0  0  0  0  0  0  0
   -1.8481   -9.8971    0.0000 F   0  0  0  0  0  0  0  0  0  0  0  0
   -5.3971   -5.9462    0.0000 C   0  0  0  0  0  0  0  0  0  0  0  0
   -6.1471   -7.2452    0.0000 F   0  0  0  0  0  0  0  0  0  0  0  0
   -4.8955   -6.5657    0.0000 F   0  0  0  0  0  0  0  0  0  0  0  0
   -6.6962   -5.1962    0.0000 F   0  0  0  0  0  0  0  0  0  0  0  0
   -5.1962   -1.5000    0.0000 C   0  0  0  0  0  0  0  0  0  0  0  0
   -6.4952   -2.2500    0.0000 F   0  0  0  0  0  0  0  0  0  0  0  0
   -5.9462   -0.2010    0.0000 F   0  0  0  0  0  0  0  0  0  0  0  0
   -4.9616   -2.9816    0.0000 F   0  0  0  0  0  0  0  0  0  0  0  0
    1.2990    0.7500    0.0000 C   0  0  0  0  0  0  0  0  0  0  0  0
    2.5981    1.5000    0.0000 F   0  0  0  0  0  0  0  0  0  0  0  0
    2.0490   -0.5490    0.0000 F   0  0  0  0  0  0  0  0  0  0  0  0
    0.5490    2.0490    0.0000 F   0  0  0  0  0  0  0  0  0  0  0  0
  1  2  1  0
  2  3  1  0
  3  4  1  0
  4  5  1  0
  4  6  1  0
  4  7  1  0
  7  8  1  0
  7  9  1  0
  9 10  1  0
 10 11  1  0
 10 12  1  0
 10 13  1  0
 13 14  1  0
 13 15  1  0
 15 16  1  0
 16 17  1  0
 16 18  1  0
 16 19  1  0
 19 20  1  0
 19 21  1  0
 19 22  1  0
 22 23  1  0
 22 24  1  0
 22 25  1  0
 13 26  1  0
 26 27  1  0
 26 28  1  0
 26 29  1  0
  7 30  1  0
 30 31  1  0
 30 32  1  0
 30 33  1  0
  2 34  1  0
 34 35  1  0
 34 36  1  0
 34 37  1  0
M  END
$$$$

     RDKit          2D

 18 17  0  0  0  0  0  0  0  0999 V2000
   -0.7500   -1.2990    0.0000 F   0  0  0  0  0  0  0  0  0  0  0  0
    0.0000    0.0000    0.0000 C   0  0  0  0  0  0  0  0  0  0  0  0
    1.5000    0.0000    0.0000 C   0  0  0  0  0  0  0  0  0  0  0  0
    2.0861   -1.3808    0.0000 F   0  0  0  0  0  0  0  0  0  0  0  0
    2.2500    1.2990    0.0000 C   0  0  0  0  0  0  0  0  0  0  0  0
    1.2797    2.0303    0.0000 F   0  0  0  0  0  0  0  0  0  0  0  0
    3.0000    2.5981    0.0000 C   0  0  0  0  0  0  0  0  0  0  0  0
    3.7500    3.8971    0.0000 F   0  0  0  0  0  0  0  0  0  0  0  0
    1.7010    3.3481    0.0000 F   0  0  0  0  0  0  0  0  0  0  0  0
    3.8153    2.2520    0.0000 F   0  0  0  0  0  0  0  0  0  0  0  0
    3.5490    0.5490    0.0000 C   0  0  0  0  0  0  0  0  0  0  0  0
    4.8481   -0.2010    0.0000 F   0  0  0  0  0  0  0  0  0  0  0  0
    4.0821    1.2564    0.0000 F   0  0  0  0  0  0  0  0  0  0  0  0
    2.9630   -0.8317    0.0000 F   0  0  0  0  0  0  0  0  0  0  0  0
   -0.7500    1.2990    0.0000 C   0  0  0  0  0  0  0  0  0  0  0  0
   -1.5000    2.5981    0.0000 F   0  0  0  0  0  0  0  0  0  0  0  0
   -2.0490    0.5490    0.0000 F   0  0  0  0  0  0  0  0  0  0  0  0
    0.2203    2.0303    0.0000 F   0  0  0  0  0  0  0  0  0  0  0  0
  1  2  1  0
  2  3  2  0
  3  4  1  0
  3  5  1  0
  5  6  1  0
  5  7  1  0
  7  8  1  0
  7  9  1  0
  7 10  1  0
  5 11  1  0
 11 12  1  0
 11 13  1  0
 11 14  1  0
  2 15  1  0
 15 16  1  0
 15 17  1  0
 15 18  1  0
M  END
$$$$

     RDKit          2D

 37 36  0  0  0  0  0  0  0  0999 V2000
   -1.2990    0.7500    0.0000 O   0  0  0  0  0  0  0  0  0  0  0  0
    0.0000    0.0000    0.0000 C   0  0  0  0  0  0  0  0  0  0  0  0
    1.2990    0.7500    0.0000 C   0  0  0  0  0  0  0  0  0  0  0  0
    2.5981   -0.0000    0.0000 C   0  0  0  0  0  0  0  0  0  0  0  0
    3.8971    0.7500    0.0000 C   0  0  0  0  0  0  0  0  0  0  0  0
    5.1962   -0.0000    0.0000 C   0  0  0  0  0  0  0  0  0  0  0  0
    6.4952    0.7500    0.0000 C   0  0  0  0  0  0  0  0  0  0  0  0
    7.7942   -0.0000    0.0000 C   0  0  0  0  0  0  0  0  0  0  0  0
    9.0933    0.7500    0.0000 C   0  0  0  0  0  0  0  0  0  0  0  0
   10.3923   -0.0000    0.0000 C   0  0  0  0  0  0  0  0  0  0  0  0
   11.6913    0.7500    0.0000 C   0  0  0  0  0  0  0  0  0  0  0  0
   12.9904   -0.0000    0.0000 C   0  0  0  0  0  0  0  0  0  0  0  0
   14.2894    0.7500    0.0000 C   0  0  0  0  0  0  0  0  0  0  0  0
   15.0394   -0.5490    0.0000 F   0  0  0  0  0  0  0  0  0  0  0  0
   13.5394    2.0490    0.0000 F   0  0  0  0  0  0  0  0  0  0  0  0
   15.5885    1.5000    0.0000 C   0  0  0  0  0  0  0  0  0  0  0  0
   14.8385    2.7990    0.0000 F   0  0  0  0  0  0  0  0  0  0  0  0
   16.3385    0.2010    0.0000 F   0  0  0  0  0  0  0  0  0  0  0  0
   16.8875    2.2500    0.0000 C   0  0  0  0  0  0  0  0  0  0  0  0
   17.6375    0.9510    0.0000 F   0  0  0  0  0  0  0  0  0  0  0  0
   16.1375    3.5490    0.0000 F   0  0  0  0  0  0  0  0  0  0  0  0
   18.1865    3.0000    0.0000 C   0  0  0  0  0  0  0  0  0  0  0  0
   17.4365    4.2990    0.0000 F   0  0  0  0  0  0  0  0  0  0  0  0
   18.9365    1.7010    0.0000 F   0  0  0  0  0  0  0  0  0  0  0  0
   19.4856    3.7500    0.0000 C   0  0  0  0  0  0  0  0  0  0  0  0
   20.2356    2.4510    0.0000 F   0  0  0  0  0  0  0  0  0  0  0  0
   18.7356    5.0490    0.0000 F   0  0  0  0  0  0  0  0  0  0  0  0
   20.7846    4.5000    0.0000 C   0  0  0  0  0  0  0  0  0  0  0  0
   20.0346    5.7990    0.0000 F   0  0  0  0  0  0  0  0  0  0  0  0
   21.5346    3.2010    0.0000 F   0  0  0  0  0  0  0  0  0  0  0  0
   22.0836    5.2500    0.0000 C   0  0  0  0  0  0  0  0  0  0  0  0
   22.8336    3.9510    0.0000 F   0  0  0  0  0  0  0  0  0  0  0  0
   21.3336    6.5490    0.0000 F   0  0  0  0  0  0  0  0  0  0  0  0
   23.3827    6.0000    0.0000 C   0  0  0  0  0  0  0  0  0  0  0  0
   24.6817    6.7500    0.0000 F   0  0  0  0  0  0  0  0  0  0  0  0
   22.6327    7.2990    0.0000 F   0  0  0  0  0  0  0  0  0  0  0  0
   24.1327    4.7010    0.0000 F   0  0  0  0  0  0  0  0  0  0  0  0
  1  2  1  0
  2  3  1  0
  3  4  1  0
  4  5  1  0
  5  6  1  0
  6  7  1  0
  7  8  1  0
  8  9  1  0
  9 10  1  0
 10 11  1  0
 11 12  2  3
 12 13  1  0
 13 14  1  0
 13 15  1  0
 13 16  1  0
 16 17  1  0
 16 18  1  0
 16 19  1  0
 19 20  1  0
 19 21  1  0
 19 22  1  0
 22 23  1  0
 22 24  1  0
 22 25  1  0
 25 26  1  0
 25 27  1  0
 25 28  1  0
 28 29  1  0
 28 30  1  0
 28 31  1  0
 31 32  1  0
 31 33  1  0
 31 34  1  0
 34 35  1  0
 34 36  1  0
 34 37  1  0
M  END
$$$$

     RDKit          2D

 37 36  0  0  0  0  0  0  0  0999 V2000
    0.0000    0.0000    0.0000 C   0  0  0  0  0  0  0  0  0  0  0  0
    1.2990    0.7500    0.0000 C   0  0  0  0  0  0  0  0  0  0  0  0
    2.5981   -0.0000    0.0000 C   0  0  0  0  0  0  0  0  0  0  0  0
    2.5981   -1.5000    0.0000 O   0  0  0  0  0  0  0  0  0  0  0  0
    3.8971    0.7500    0.0000 O   0  0  0  0  0  0  0  0  0  0  0  0
    5.1962   -0.0000    0.0000 C   0  0  0  0  0  0  0  0  0  0  0  0
    6.4952    0.7500    0.0000 C   0  0  0  0  0  0  0  0  0  0  0  0
    6.4952    2.2500    0.0000 O   0  0  0  0  0  0  0  0  0  0  0  0
    7.7942   -0.0000    0.0000 C   0  0  0  0  0  0  0  0  0  0  0  0
    9.0933    0.7500    0.0000 C   0  0  0  0  0  0  0  0  0  0  0  0
    9.8433   -0.5490    0.0000 F   0  0  0  0  0  0  0  0  0  0  0  0
    8.3433    2.0490    0.0000 F   0  0  0  0  0  0  0  0  0  0  0  0
   10.3923    1.5000    0.0000 C   0  0  0  0  0  0  0  0  0  0  0  0
    9.6423    2.7990    0.0000 F   0  0  0  0  0  0  0  0  0  0  0  0
   11.1423    0.2010    0.0000 F   0  0  0  0  0  0  0  0  0  0  0  0
   11.6913    2.2500    0.0000 C   0  0  0  0  0  0  0  0  0  0  0  0
   12.4413    0.9510    0.0000 F   0  0  0  0  0  0  0  0  0  0  0  0
   10.9413    3.5490    0.0000 F   0  0  0  0  0  0  0  0  0  0  0  0
   12.9904    3.0000    0.0000 C   0  0  0  0  0  0  0  0  0  0  0  0
   13.7404    1.7010    0.0000 F   0  0  0  0  0  0  0  0  0  0  0  0
   12.2404    4.2990    0.0000 F   0  0  0  0  0  0  0  0  0  0  0  0
   14.2894    3.7500    0.0000 C   0  0  0  0  0  0  0  0  0  0  0  0
   13.5394    5.0490    0.0000 F   0  0  0  0  0  0  0  0  0  0  0  0
   15.0394    2.4510    0.0000 F   0  0  0  0  0  0  0  0  0  0  0  0
   15.5885    4.5000    0.0000 C   0  0  0  0  0  0  0  0  0  0  0  0
   15.9345    3.6847    0.0000 F   0  0  0  0  0  0  0  0  0  0  0  0
   14.8385    5.7990    0.0000 F   0  0  0  0  0  0  0  0  0  0  0  0
   16.8875    5.2500    0.0000 C   0  0  0  0  0  0  0  0  0  0  0  0
   16.1375    6.5490    0.0000 F   0  0  0  0  0  0  0  0  0  0  0  0
   18.1865    6.0000    0.0000 C   0  0  0  0  0  0  0  0  0  0  0  0
   19.4856    6.7500    0.0000 F   0  0  0  0  0  0  0  0  0  0  0  0
   17.4365    7.2990    0.0000 F   0  0  0  0  0  0  0  0  0  0  0  0
   18.7196    5.2926    0.0000 F   0  0  0  0  0  0  0  0  0  0  0  0
   17.6375    3.9510    0.0000 C   0  0  0  0  0  0  0  0  0  0  0  0
   18.3875    2.6519    0.0000 F   0  0  0  0  0  0  0  0  0  0  0  0
   18.4528    4.2970    0.0000 F   0  0  0  0  0  0  0  0  0  0  0  0
   16.9301    3.4179    0.0000 F   0  0  0  0  0  0  0  0  0  0  0  0
  1  2  2  0
  2  3  1  0
  3  4  2  0
  3  5  1  0
  5  6  1  0
  6  7  1  0
  7  8  1  0
  7  9  1  0
  9 10  1  0
 10 11  1  0
 10 12  1  0
 10 13  1  0
 13 14  1  0
 13 15  1  0
 13 16  1  0
 16 17  1  0
 16 18  1  0
 16 19  1  0
 19 20  1  0
 19 21  1  0
 19 22  1  0
 22 23  1  0
 22 24  1  0
 22 25  1  0
 25 26  1  0
 25 27  1  0
 25 28  1  0
 28 29  1  0
 28 30  1  0
 30 31  1  0
 30 32  1  0
 30 33  1  0
 28 34  1  0
 34 35  1  0
 34 36  1  0
 34 37  1  0
M  END
$$$$

     RDKit          2D

 17 18  0  0  0  0  0  0  0  0999 V2000
    4.5000   -2.5981    0.0000 O   0  0  0  0  0  0  0  0  0  0  0  0
    3.7500   -1.2990    0.0000 C   0  0  0  0  0  0  0  0  0  0  0  0
    3.0000    0.0000    0.0000 N   0  0  0  0  0  0  0  0  0  0  0  0
    1.5000    0.0000    0.0000 C   0  0  0  0  0  0  0  0  0  0  0  0
    0.7500   -1.2990    0.0000 C   0  0  0  0  0  0  0  0  0  0  0  0
   -0.7500   -1.2990    0.0000 C   0  0  0  0  0  0  0  0  0  0  0  0
   -1.5000    0.0000    0.0000 C   0  0  0  0  0  0  0  0  0  0  0  0
   -0.7500    1.2990    0.0000 C   0  0  0  0  0  0  0  0  0  0  0  0
    0.7500    1.2990    0.0000 C   0  0  0  0  0  0  0  0  0  0  0  0
   -1.5000    2.5981    0.0000 C   0  0  0  0  0  0  0  0  0  0  0  0
   -1.7605    4.0753    0.0000 F   0  0  0  0  0  0  0  0  0  0  0  0
   -0.0905    3.1111    0.0000 F   0  0  0  0  0  0  0  0  0  0  0  0
   -3.0000    2.5981    0.0000 O   0  0  0  0  0  0  0  0  0  0  0  0
   -3.7500    1.2990    0.0000 C   0  0  0  0  0  0  0  0  0  0  0  0
   -4.8991    0.3349    0.0000 F   0  0  0  0  0  0  0  0  0  0  0  0
   -4.8991    2.2632    0.0000 F   0  0  0  0  0  0  0  0  0  0  0  0
   -3.0000    0.0000    0.0000 O   0  0  0  0  0  0  0  0  0  0  0  0
  1  2  2  0
  2  3  2  0
  3  4  1  0
  4  5  2  0
  5  6  1  0
  6  7  2  0
  7  8  1  0
  8  9  2  0
  8 10  1  0
 10 11  1  0
 10 12  1  0
 10 13  1  0
 13 14  1  0
 14 15  1  0
 14 16  1  0
 14 17  1  0
  9  4  1  0
 17  7  1  0
M  END
$$$$

     RDKit          2D

 19 18  0  0  0  0  0  0  0  0999 V2000
    0.0000    0.0000    0.0000 C   0  0  0  0  0  0  0  0  0  0  0  0
    1.2990    0.7500    0.0000 Si  0  0  0  0  0  4  0  0  0  0  0  0
    2.0490   -0.5490    0.0000 Cl  0  0  0  0  0  0  0  0  0  0  0  0
    0.5490    2.0490    0.0000 Cl  0  0  0  0  0  0  0  0  0  0  0  0
    2.5981    1.5000    0.0000 C   0  0  0  0  0  0  0  0  0  0  0  0
    2.5981    3.0000    0.0000 C   0  0  0  0  0  0  0  0  0  0  0  0
    3.8971    3.7500    0.0000 C   0  0  0  0  0  0  0  0  0  0  0  0
    3.1471    5.0490    0.0000 F   0  0  0  0  0  0  0  0  0  0  0  0
    4.6471    2.4510    0.0000 F   0  0  0  0  0  0  0  0  0  0  0  0
    5.1962    4.5000    0.0000 C   0  0  0  0  0  0  0  0  0  0  0  0
    5.9462    3.2010    0.0000 F   0  0  0  0  0  0  0  0  0  0  0  0
    4.4462    5.7990    0.0000 F   0  0  0  0  0  0  0  0  0  0  0  0
    6.4952    5.2500    0.0000 C   0  0  0  0  0  0  0  0  0  0  0  0
    5.7452    6.5490    0.0000 F   0  0  0  0  0  0  0  0  0  0  0  0
    7.2452    3.9510    0.0000 F   0  0  0  0  0  0  0  0  0  0  0  0
    7.7942    6.0000    0.0000 C   0  0  0  0  0  0  0  0  0  0  0  0
    9.0933    6.7500    0.0000 F   0  0  0  0  0  0  0  0  0  0  0  0
    8.5442    4.7010    0.0000 F   0  0  0  0  0  0  0  0  0  0  0  0
    7.0442    7.2990    0.0000 F   0  0  0  0  0  0  0  0  0  0  0  0
  1  2  1  0
  2  3  1  0
  2  4  1  0
  2  5  1  0
  5  6  1  0
  6  7  1  0
  7  8  1  0
  7  9  1  0
  7 10  1  0
 10 11  1  0
 10 12  1  0
 10 13  1  0
 13 14  1  0
 13 15  1  0
 13 16  1  0
 16 17  1  0
 16 18  1  0
 16 19  1  0
M  END
$$$$

     RDKit          2D

 35 35  0  0  0  0  0  0  0  0999 V2000
   10.6160  -14.2894    0.0000 F   0  0  0  0  0  0  0  0  0  0  0  0
    9.8660  -12.9904    0.0000 C   0  0  0  0  0  0  0  0  0  0  0  0
    8.5670  -13.7404    0.0000 F   0  0  0  0  0  0  0  0  0  0  0  0
   11.1651  -12.2404    0.0000 F   0  0  0  0  0  0  0  0  0  0  0  0
    9.1160  -11.6913    0.0000 C   0  0  0  0  0  0  0  0  0  0  0  0
   10.4151  -10.9413    0.0000 F   0  0  0  0  0  0  0  0  0  0  0  0
    7.8170  -12.4413    0.0000 F   0  0  0  0  0  0  0  0  0  0  0  0
    8.3660  -10.3923    0.0000 C   0  0  0  0  0  0  0  0  0  0  0  0
    7.0670  -11.1423    0.0000 F   0  0  0  0  0  0  0  0  0  0  0  0
    9.6651   -9.6423    0.0000 F   0  0  0  0  0  0  0  0  0  0  0  0
    7.6160   -9.0933    0.0000 C   0  0  0  0  0  0  0  0  0  0  0  0
    8.9151   -8.3433    0.0000 F   0  0  0  0  0  0  0  0  0  0  0  0
    6.3170   -9.8433    0.0000 F   0  0  0  0  0  0  0  0  0  0  0  0
    6.8660   -7.7942    0.0000 C   0  0  0  0  0  0  0  0  0  0  0  0
    5.5670   -8.5442    0.0000 F   0  0  0  0  0  0  0  0  0  0  0  0
    8.1651   -7.0442    0.0000 F   0  0  0  0  0  0  0  0  0  0  0  0
    6.1160   -6.4952    0.0000 C   0  0  0  0  0  0  0  0  0  0  0  0
    7.4151   -5.7452    0.0000 F   0  0  0  0  0  0  0  0  0  0  0  0
    4.8170   -7.2452    0.0000 F   0  0  0  0  0  0  0  0  0  0  0  0
    5.3660   -5.1962    0.0000 C   0  0  0  0  0  0  0  0  0  0  0  0
    4.0670   -5.9462    0.0000 F   0  0  0  0  0  0  0  0  0  0  0  0
    6.6651   -4.4462    0.0000 F   0  0  0  0  0  0  0  0  0  0  0  0
    4.6160   -3.8971    0.0000 C   0  0  0  0  0  0  0  0  0  0  0  0
    5.9151   -3.1471    0.0000 F   0  0  0  0  0  0  0  0  0  0  0  0
    3.3170   -4.6471    0.0000 F   0  0  0  0  0  0  0  0  0  0  0  0
    3.8660   -2.5981    0.0000 C   0  0  0  0  0  0  0  0  0  0  0  0
    2.5670   -3.3481    0.0000 F   0  0  0  0  0  0  0  0  0  0  0  0
    5.1651   -1.8481    0.0000 F   0  0  0  0  0  0  0  0  0  0  0  0
    3.1160   -1.2990    0.0000 C   0  0  0  0  0  0  0  0  0  0  0  0
    4.4151   -0.5490    0.0000 F   0  0  0  0  0  0  0  0  0  0  0  0
    1.8170   -2.0490    0.0000 F   0  0  0  0  0  0  0  0  0  0  0  0
    2.3660    0.0000    0.0000 C   0  0  0  0  0  0  0  0  0  0  0  0
    0.8660    0.0000    0.0000 C   0  0  0  0  0  0  0  0  0  0  0  0
   -0.4330    0.7500    0.0000 C   0  0  0  0  0  0  0  0  0  0  0  0
   -0.4330   -0.7500    0.0000 O   0  0  0  0  0  0  0  0  0  0  0  0
  1  2  1  0
  2  3  1  0
  2  4  1  0
  2  5  1  0
  5  6  1  0
  5  7  1  0
  5  8  1  0
  8  9  1  0
  8 10  1  0
  8 11  1  0
 11 12  1  0
 11 13  1  0
 11 14  1  0
 14 15  1  0
 14 16  1  0
 14 17  1  0
 17 18  1  0
 17 19  1  0
 17 20  1  0
 20 21  1  0
 20 22  1  0
 20 23  1  0
 23 24  1  0
 23 25  1  0
 23 26  1  0
 26 27  1  0
 26 28  1  0
 26 29  1  0
 29 30  1  0
 29 31  1  0
 29 32  1  0
 32 33  1  0
 33 34  1  0
 34 35  1  0
 35 33  1  0
M  END
$$$$

     RDKit          2D

 47 46  0  0  0  0  0  0  0  0999 V2000
    0.0000    0.0000    0.0000 C   0  0  0  0  0  0  0  0  0  0  0  0
    1.2990    0.7500    0.0000 C   0  0  0  0  0  0  0  0  0  0  0  0
    2.5981   -0.0000    0.0000 C   0  0  0  0  0  0  0  0  0  0  0  0
    2.5981   -1.5000    0.0000 O   0  0  0  0  0  0  0  0  0  0  0  0
    3.8971    0.7500    0.0000 O   0  0  0  0  0  0  0  0  0  0  0  0
    5.1962   -0.0000    0.0000 C   0  0  0  0  0  0  0  0  0  0  0  0
    6.4952    0.7500    0.0000 C   0  0  0  0  0  0  0  0  0  0  0  0
    7.7942   -0.0000    0.0000 C   0  0  0  0  0  0  0  0  0  0  0  0
    8.5442    1.2990    0.0000 F   0  0  0  0  0  0  0  0  0  0  0  0
    7.0442   -1.2990    0.0000 F   0  0  0  0  0  0  0  0  0  0  0  0
    9.0933   -0.7500    0.0000 C   0  0  0  0  0  0  0  0  0  0  0  0
    8.3433   -2.0490    0.0000 F   0  0  0  0  0  0  0  0  0  0  0  0
    9.8433    0.5490    0.0000 F   0  0  0  0  0  0  0  0  0  0  0  0
   10.3923   -1.5000    0.0000 C   0  0  0  0  0  0  0  0  0  0  0  0
   11.1423   -0.2010    0.0000 F   0  0  0  0  0  0  0  0  0  0  0  0
    9.6423   -2.7990    0.0000 F   0  0  0  0  0  0  0  0  0  0  0  0
   11.6913   -2.2500    0.0000 C   0  0  0  0  0  0  0  0  0  0  0  0
   10.9413   -3.5490    0.0000 F   0  0  0  0  0  0  0  0  0  0  0  0
   12.4413   -0.9510    0.0000 F   0  0  0  0  0  0  0  0  0  0  0  0
   12.9904   -3.0000    0.0000 C   0  0  0  0  0  0  0  0  0  0  0  0
   13.7404   -1.7010    0.0000 F   0  0  0  0  0  0  0  0  0  0  0  0
   12.2404   -4.2990    0.0000 F   0  0  0  0  0  0  0  0  0  0  0  0
   14.2894   -3.7500    0.0000 C   0  0  0  0  0  0  0  0  0  0  0  0
   15.0394   -2.4510    0.0000 F   0  0  0  0  0  0  0  0  0  0  0  0
   13.5394   -5.0490    0.0000 F   0  0  0  0  0  0  0  0  0  0  0  0
   15.5885   -4.5000    0.0000 C   0  0  0  0  0  0  0  0  0  0  0  0
   14.8385   -5.7990    0.0000 F   0  0  0  0  0  0  0  0  0  0  0  0
   16.3385   -3.2010    0.0000 F   0  0  0  0  0  0  0  0  0  0  0  0
   16.8875   -5.2500    0.0000 C   0  0  0  0  0  0  0  0  0  0  0  0
   17.6375   -3.9510    0.0000 F   0  0  0  0  0  0  0  0  0  0  0  0
   16.1375   -6.5490    0.0000 F   0  0  0  0  0  0  0  0  0  0  0  0
   18.1865   -6.0000    0.0000 C   0  0  0  0  0  0  0  0  0  0  0  0
   17.4365   -7.2990    0.0000 F   0  0  0  0  0  0  0  0  0  0  0  0
   18.9365   -4.7010    0.0000 F   0  0  0  0  0  0  0  0  0  0  0  0
   19.4856   -6.7500    0.0000 C   0  0  0  0  0  0  0  0  0  0  0  0
   19.8316   -5.9347    0.0000 F   0  0  0  0  0  0  0  0  0  0  0  0
   18.7356   -8.0490    0.0000 F   0  0  0  0  0  0  0  0  0  0  0  0
   20.7846   -7.5000    0.0000 C   0  0  0  0  0  0  0  0  0  0  0  0
   20.0346   -8.7990    0.0000 F   0  0  0  0  0  0  0  0  0  0  0  0
   22.0836   -8.2500    0.0000 C   0  0  0  0  0  0  0  0  0  0  0  0
   23.3827   -9.0000    0.0000 F   0  0  0  0  0  0  0  0  0  0  0  0
   21.3336   -9.5490    0.0000 F   0  0  0  0  0  0  0  0  0  0  0  0
   22.6167   -7.5426    0.0000 F   0  0  0  0  0  0  0  0  0  0  0  0
   21.5346   -6.2010    0.0000 C   0  0  0  0  0  0  0  0  0  0  0  0
   22.2846   -4.9019    0.0000 F   0  0  0  0  0  0  0  0  0  0  0  0
   22.3499   -6.5470    0.0000 F   0  0  0  0  0  0  0  0  0  0  0  0
   20.8272   -5.6679    0.0000 F   0  0  0  0  0  0  0  0  0  0  0  0
  1  2  2  0
  2  3  1  0
  3  4  2  0
  3  5  1  0
  5  6  1  0
  6  7  1  0
  7  8  1  0
  8  9  1  0
  8 10  1  0
  8 11  1  0
 11 12  1  0
 11 13  1  0
 11 14  1  0
 14 15  1  0
 14 16  1  0
 14 17  1  0
 17 18  1  0
 17 19  1  0
 17 20  1  0
 20 21  1  0
 20 22  1  0
 20 23  1  0
 23 24  1  0
 23 25  1  0
 23 26  1  0
 26 27  1  0
 26 28  1  0
 26 29  1  0
 29 30  1  0
 29 31  1  0
 29 32  1  0
 32 33  1  0
 32 34  1  0
 32 35  1  0
 35 36  1  0
 35 37  1  0
 35 38  1  0
 38 39  1  0
 38 40  1  0
 40 41  1  0
 40 42  1  0
 40 43  1  0
 38 44  1  0
 44 45  1  0
 44 46  1  0
 44 47  1  0
M  END
$$$$

     RDKit          2D

 56 56  0  0  0  0  0  0  0  0999 V2000
   15.1160  -22.0836    0.0000 F   0  0  0  0  0  0  0  0  0  0  0  0
   14.3660  -20.7846    0.0000 C   0  0  0  0  0  0  0  0  0  0  0  0
   13.0670  -21.5346    0.0000 F   0  0  0  0  0  0  0  0  0  0  0  0
   15.1814  -20.4385    0.0000 F   0  0  0  0  0  0  0  0  0  0  0  0
   13.6160  -19.4856    0.0000 C   0  0  0  0  0  0  0  0  0  0  0  0
   12.3170  -20.2356    0.0000 F   0  0  0  0  0  0  0  0  0  0  0  0
   14.9151  -18.7356    0.0000 C   0  0  0  0  0  0  0  0  0  0  0  0
   16.2141  -17.9856    0.0000 F   0  0  0  0  0  0  0  0  0  0  0  0
   15.4481  -19.4429    0.0000 F   0  0  0  0  0  0  0  0  0  0  0  0
   14.5690  -17.9202    0.0000 F   0  0  0  0  0  0  0  0  0  0  0  0
   12.8660  -18.1865    0.0000 C   0  0  0  0  0  0  0  0  0  0  0  0
   13.5734  -17.6535    0.0000 F   0  0  0  0  0  0  0  0  0  0  0  0
   11.5670  -18.9365    0.0000 F   0  0  0  0  0  0  0  0  0  0  0  0
   12.1160  -16.8875    0.0000 C   0  0  0  0  0  0  0  0  0  0  0  0
   10.8170  -17.6375    0.0000 F   0  0  0  0  0  0  0  0  0  0  0  0
   13.4151  -16.1375    0.0000 F   0  0  0  0  0  0  0  0  0  0  0  0
   11.3660  -15.5885    0.0000 C   0  0  0  0  0  0  0  0  0  0  0  0
   12.6651  -14.8385    0.0000 F   0  0  0  0  0  0  0  0  0  0  0  0
   10.0670  -16.3385    0.0000 F   0  0  0  0  0  0  0  0  0  0  0  0
   10.6160  -14.2894    0.0000 C   0  0  0  0  0  0  0  0  0  0  0  0
    9.3170  -15.0394    0.0000 F   0  0  0  0  0  0  0  0  0  0  0  0
   11.9151  -13.5394    0.0000 F   0  0  0  0  0  0  0  0  0  0  0  0
    9.8660  -12.9904    0.0000 C   0  0  0  0  0  0  0  0  0  0  0  0
   11.1651  -12.2404    0.0000 F   0  0  0  0  0  0  0  0  0  0  0  0
    8.5670  -13.7404    0.0000 F   0  0  0  0  0  0  0  0  0  0  0  0
    9.1160  -11.6913    0.0000 C   0  0  0  0  0  0  0  0  0  0  0  0
    7.8170  -12.4413    0.0000 F   0  0  0  0  0  0  0  0  0  0  0  0
   10.4151  -10.9413    0.0000 F   0  0  0  0  0  0  0  0  0  0  0  0
    8.3660  -10.3923    0.0000 C   0  0  0  0  0  0  0  0  0  0  0  0
    9.6651   -9.6423    0.0000 F   0  0  0  0  0  0  0  0  0  0  0  0
    7.0670  -11.1423    0.0000 F   0  0  0  0  0  0  0  0  0  0  0  0
    7.6160   -9.0933    0.0000 C   0  0  0  0  0  0  0  0  0  0  0  0
    8.9151   -8.3433    0.0000 F   0  0  0  0  0  0  0  0  0  0  0  0
    6.3170   -9.8433    0.0000 F   0  0  0  0  0  0  0  0  0  0  0  0
    6.8660   -7.7942    0.0000 C   0  0  0  0  0  0  0  0  0  0  0  0
    5.5670   -8.5442    0.0000 F   0  0  0  0  0  0  0  0  0  0  0  0
    8.1651   -7.0442    0.0000 F   0  0  0  0  0  0  0  0  0  0  0  0
    6.1160   -6.4952    0.0000 C   0  0  0  0  0  0  0  0  0  0  0  0
    7.4151   -5.7452    0.0000 F   0  0  0  0  0  0  0  0  0  0  0  0
    4.8170   -7.2452    0.0000 F   0  0  0  0  0  0  0  0  0  0  0  0
    5.3660   -5.1962    0.0000 C   0  0  0  0  0  0  0  0  0  0  0  0
    4.0670   -5.9462    0.0000 F   0  0  0  0  0  0  0  0  0  0  0  0
    6.6651   -4.4462    0.0000 F   0  0  0  0  0  0  0  0  0  0  0  0
    4.6160   -3.8971    0.0000 C   0  0  0  0  0  0  0  0  0  0  0  0
    5.9151   -3.1471    0.0000 F   0  0  0  0  0  0  0  0  0  0  0  0
    3.3170   -4.6471    0.0000 F   0  0  0  0  0  0  0  0  0  0  0  0
    3.8660   -2.5981    0.0000 C   0  0  0  0  0  0  0  0  0  0  0  0
    2.5670   -3.3481    0.0000 F   0  0  0  0  0  0  0  0  0  0  0  0
    5.1651   -1.8481    0.0000 F   0  0  0  0  0  0  0  0  0  0  0  0
    3.1160   -1.2990    0.0000 C   0  0  0  0  0  0  0  0  0  0  0  0
    4.4151   -0.5490    0.0000 F   0  0  0  0  0  0  0  0  0  0  0  0
    1.8170   -2.0490    0.0000 F   0  0  0  0  0  0  0  0  0  0  0  0
    2.3660    0.0000    0.0000 C   0  0  0  0  0  0  0  0  0  0  0  0
    0.8660    0.0000    0.0000 C   0  0  0  0  0  0  0  0  0  0  0  0
   -0.4330    0.7500    0.0000 C   0  0  0  0  0  0  0  0  0  0  0  0
   -0.4330   -0.7500    0.0000 O   0  0  0  0  0  0  0  0  0  0  0  0
  1  2  1  0
  2  3  1  0
  2  4  1  0
  2  5  1  0
  5  6  1  0
  5  7  1  0
  7  8  1  0
  7  9  1  0
  7 10  1  0
  5 11  1  0
 11 12  1  0
 11 13  1  0
 11 14  1  0
 14 15  1  0
 14 16  1  0
 14 17  1  0
 17 18  1  0
 17 19  1  0
 17 20  1  0
 20 21  1  0
 20 22  1  0
 20 23  1  0
 23 24  1  0
 23 25  1  0
 23 26  1  0
 26 27  1  0
 26 28  1  0
 26 29  1  0
 29 30  1  0
 29 31  1  0
 29 32  1  0
 32 33  1  0
 32 34  1  0
 32 35  1  0
 35 36  1  0
 35 37  1  0
 35 38  1  0
 38 39  1  0
 38 40  1  0
 38 41  1  0
 41 42  1  0
 41 43  1  0
 41 44  1  0
 44 45  1  0
 44 46  1  0
 44 47  1  0
 47 48  1  0
 47 49  1  0
 47 50  1  0
 50 51  1  0
 50 52  1  0
 50 53  1  0
 53 54  1  0
 54 55  1  0
 55 56  1  0
 56 54  1  0
M  END
$$$$

     RDKit          2D

 35 34  0  0  0  0  0  0  0  0999 V2000
    0.0000   -2.5981    0.0000 O   0  0  0  0  0  0  0  0  0  0  0  0
   -0.7500   -1.2990    0.0000 C   0  0  0  0  0  0  0  0  0  0  0  0
   -2.2500   -1.2990    0.0000 O   0  0  0  0  0  0  0  0  0  0  0  0
    0.0000    0.0000    0.0000 C   0  0  0  0  0  0  0  0  0  0  0  0
    1.5000    0.0000    0.0000 C   0  0  0  0  0  0  0  0  0  0  0  0
    2.2500   -1.2990    0.0000 C   0  0  0  0  0  0  0  0  0  0  0  0
    1.5000   -2.5981    0.0000 O   0  0  0  0  0  0  0  0  0  0  0  0
    3.7500   -1.2990    0.0000 O   0  0  0  0  0  0  0  0  0  0  0  0
    4.5000   -2.5981    0.0000 C   0  0  0  0  0  0  0  0  0  0  0  0
    6.0000   -2.5981    0.0000 C   0  0  0  0  0  0  0  0  0  0  0  0
    6.7500   -3.8971    0.0000 C   0  0  0  0  0  0  0  0  0  0  0  0
    8.0490   -3.1471    0.0000 F   0  0  0  0  0  0  0  0  0  0  0  0
    5.4510   -4.6471    0.0000 F   0  0  0  0  0  0  0  0  0  0  0  0
    7.5000   -5.1962    0.0000 C   0  0  0  0  0  0  0  0  0  0  0  0
    6.2010   -5.9462    0.0000 F   0  0  0  0  0  0  0  0  0  0  0  0
    8.7990   -4.4462    0.0000 F   0  0  0  0  0  0  0  0  0  0  0  0
    8.2500   -6.4952    0.0000 C   0  0  0  0  0  0  0  0  0  0  0  0
    9.5490   -5.7452    0.0000 F   0  0  0  0  0  0  0  0  0  0  0  0
    6.9510   -7.2452    0.0000 F   0  0  0  0  0  0  0  0  0  0  0  0
    9.0000   -7.7942    0.0000 C   0  0  0  0  0  0  0  0  0  0  0  0
    7.7010   -8.5442    0.0000 F   0  0  0  0  0  0  0  0  0  0  0  0
   10.2990   -7.0442    0.0000 F   0  0  0  0  0  0  0  0  0  0  0  0
    9.7500   -9.0933    0.0000 C   0  0  0  0  0  0  0  0  0  0  0  0
   11.0490   -8.3433    0.0000 F   0  0  0  0  0  0  0  0  0  0  0  0
    8.4510   -9.8433    0.0000 F   0  0  0  0  0  0  0  0  0  0  0  0
   10.5000  -10.3923    0.0000 C   0  0  0  0  0  0  0  0  0  0  0  0
    9.2010  -11.1423    0.0000 F   0  0  0  0  0  0  0  0  0  0  0  0
   11.7990   -9.6423    0.0000 F   0  0  0  0  0  0  0  0  0  0  0  0
   11.2500  -11.6913    0.0000 C   0  0  0  0  0  0  0  0  0  0  0  0
   12.5490  -10.9413    0.0000 F   0  0  0  0  0  0  0  0  0  0  0  0
    9.9510  -12.4413    0.0000 F   0  0  0  0  0  0  0  0  0  0  0  0
   12.0000  -12.9904    0.0000 C   0  0  0  0  0  0  0  0  0  0  0  0
   12.7500  -14.2894    0.0000 F   0  0  0  0  0  0  0  0  0  0  0  0
   10.7010  -13.7404    0.0000 F   0  0  0  0  0  0  0  0  0  0  0  0
   13.2990  -12.2404    0.0000 F   0  0  0  0  0  0  0  0  0  0  0  0
  1  2  2  0
  2  3  1  0
  2  4  1  0
  4  5  2  0
  5  6  1  0
  6  7  2  0
  6  8  1  0
  8  9  1  0
  9 10  1  0
 10 11  1  0
 11 12  1  0
 11 13  1  0
 11 14  1  0
 14 15  1  0
 14 16  1  0
 14 17  1  0
 17 18  1  0
 17 19  1  0
 17 20  1  0
 20 21  1  0
 20 22  1  0
 20 23  1  0
 23 24  1  0
 23 25  1  0
 23 26  1  0
 26 27  1  0
 26 28  1  0
 26 29  1  0
 29 30  1  0
 29 31  1  0
 29 32  1  0
 32 33  1  0
 32 34  1  0
 32 35  1  0
M  END
$$$$

     RDKit          2D

 33 31  0  0  0  0  0  0  0  0999 V2000
   -3.3481    1.2990    0.0000 O   0  0  0  0  0  0  0  0  0  0  0  0
   -2.5981    0.0000    0.0000 P   0  0  0  0  0  0  0  0  0  0  0  0
   -1.8481   -1.2990    0.0000 O   0  0  0  0  0  0  0  0  0  0  0  0
   -3.8971   -0.7500    0.0000 O   0  0  0  0  0  0  0  0  0  0  0  0
   -1.2990    0.7500    0.0000 O   0  0  0  0  0  0  0  0  0  0  0  0
    0.0000    0.0000    0.0000 C   0  0  0  0  0  0  0  0  0  0  0  0
    1.2990    0.7500    0.0000 C   0  0  0  0  0  0  0  0  0  0  0  0
    2.5981   -0.0000    0.0000 C   0  0  0  0  0  0  0  0  0  0  0  0
    3.3481    1.2990    0.0000 F   0  0  0  0  0  0  0  0  0  0  0  0
    1.8481   -1.2990    0.0000 F   0  0  0  0  0  0  0  0  0  0  0  0
    3.8971   -0.7500    0.0000 C   0  0  0  0  0  0  0  0  0  0  0  0
    3.1471   -2.0490    0.0000 F   0  0  0  0  0  0  0  0  0  0  0  0
    4.6471    0.5490    0.0000 F   0  0  0  0  0  0  0  0  0  0  0  0
    5.1962   -1.5000    0.0000 C   0  0  0  0  0  0  0  0  0  0  0  0
    5.9462   -0.2010    0.0000 F   0  0  0  0  0  0  0  0  0  0  0  0
    4.4462   -2.7990    0.0000 F   0  0  0  0  0  0  0  0  0  0  0  0
    6.4952   -2.2500    0.0000 C   0  0  0  0  0  0  0  0  0  0  0  0
    5.7452   -3.5490    0.0000 F   0  0  0  0  0  0  0  0  0  0  0  0
    7.2452   -0.9510    0.0000 F   0  0  0  0  0  0  0  0  0  0  0  0
    7.7942   -3.0000    0.0000 C   0  0  0  0  0  0  0  0  0  0  0  0
    8.5442   -1.7010    0.0000 F   0  0  0  0  0  0  0  0  0  0  0  0
    7.0442   -4.2990    0.0000 F   0  0  0  0  0  0  0  0  0  0  0  0
    9.0933   -3.7500    0.0000 C   0  0  0  0  0  0  0  0  0  0  0  0
   10.3923   -4.5000    0.0000 F   0  0  0  0  0  0  0  0  0  0  0  0
    8.3433   -5.0490    0.0000 F   0  0  0  0  0  0  0  0  0  0  0  0
    9.8433   -2.4510    0.0000 F   0  0  0  0  0  0  0  0  0  0  0  0
   -1.2990    3.0490    0.0000 O   0  0  0  0  0  0  0  0  0  0  0  0
    0.0000    2.2990    0.0000 C   0  0  0  0  0  0  0  0  0  0  0  0
    1.2990    3.0490    0.0000 C   0  0  0  0  0  0  0  0  0  0  0  0
    2.5981    2.2990    0.0000 N   0  0  0  0  0  0  0  0  0  0  0  0
    3.8971    3.0490    0.0000 C   0  0  0  0  0  0  0  0  0  0  0  0
    5.1962    2.2990    0.0000 C   0  0  0  0  0  0  0  0  0  0  0  0
    6.4952    3.0490    0.0000 O   0  0  0  0  0  0  0  0  0  0  0  0
  1  2  2  0
  2  3  1  0
  2  4  1  0
  2  5  1  0
  5  6  1  0
  6  7  1  0
  7  8  1  0
  8  9  1  0
  8 10  1  0
  8 11  1  0
 11 12  1  0
 11 13  1  0
 11 14  1  0
 14 15  1  0
 14 16  1  0
 14 17  1  0
 17 18  1  0
 17 19  1  0
 17 20  1  0
 20 21  1  0
 20 22  1  0
 20 23  1  0
 23 24  1  0
 23 25  1  0
 23 26  1  0
 27 28  1  0
 28 29  1  0
 29 30  1  0
 30 31  1  0
 31 32  1  0
 32 33  1  0
M  END
$$$$

     RDKit          2D

 46 45  0  0  0  0  0  0  0  0999 V2000
   11.0490  -10.9413    0.0000 R   0  0  0  0  0  0  0  0  0  0  0  0
    9.7500  -11.6913    0.0000 C   0  0  0  0  0  0  0  0  0  0  0  0
    8.4510  -12.4413    0.0000 R   0  0  0  0  0  0  0  0  0  0  0  0
   10.5000  -12.9904    0.0000 R   0  0  0  0  0  0  0  0  0  0  0  0
    9.0000  -10.3923    0.0000 C   0  0  0  0  0  0  0  0  0  0  0  0
    7.7010  -11.1423    0.0000 R   0  0  0  0  0  0  0  0  0  0  0  0
   10.2990   -9.6423    0.0000 R   0  0  0  0  0  0  0  0  0  0  0  0
    8.2500   -9.0933    0.0000 C   0  0  0  0  0  0  0  0  0  0  0  0
    9.5490   -8.3433    0.0000 R   0  0  0  0  0  0  0  0  0  0  0  0
    6.9510   -9.8433    0.0000 R   0  0  0  0  0  0  0  0  0  0  0  0
    7.5000   -7.7942    0.0000 C   0  0  0  0  0  0  0  0  0  0  0  0
    6.2010   -8.5442    0.0000 R   0  0  0  0  0  0  0  0  0  0  0  0
    8.7990   -7.0442    0.0000 R   0  0  0  0  0  0  0  0  0  0  0  0
    6.7500   -6.4952    0.0000 C   0  0  0  0  0  0  0  0  0  0  0  0
    8.0490   -5.7452    0.0000 R   0  0  0  0  0  0  0  0  0  0  0  0
    5.4510   -7.2452    0.0000 R   0  0  0  0  0  0  0  0  0  0  0  0
    6.0000   -5.1962    0.0000 C   0  0  0  0  0  0  0  0  0  0  0  0
    4.7010   -5.9462    0.0000 R   0  0  0  0  0  0  0  0  0  0  0  0
    7.2990   -4.4462    0.0000 R   0  0  0  0  0  0  0  0  0  0  0  0
    5.2500   -3.8971    0.0000 C   0  0  0  0  0  0  0  0  0  0  0  0
    6.5490   -3.1471    0.0000 R   0  0  0  0  0  0  0  0  0  0  0  0
    3.9510   -4.6471    0.0000 R   0  0  0  0  0  0  0  0  0  0  0  0
    4.5000   -2.5981    0.0000 C   0  0  0  0  0  0  0  0  0  0  0  0
    3.2010   -3.3481    0.0000 R   0  0  0  0  0  0  0  0  0  0  0  0
    5.7990   -1.8481    0.0000 R   0  0  0  0  0  0  0  0  0  0  0  0
    3.7500   -1.2990    0.0000 C   0  0  0  0  0  0  0  0  0  0  0  0
    5.0490   -0.5490    0.0000 R   0  0  0  0  0  0  0  0  0  0  0  0
    2.4510   -2.0490    0.0000 R   0  0  0  0  0  0  0  0  0  0  0  0
    3.0000    0.0000    0.0000 O   0  0  0  0  0  0  0  0  0  0  0  0
    1.5000    0.0000    0.0000 C   0  0  0  0  0  0  0  0  0  0  0  0
    0.7500   -1.2990    0.0000 C   0  0  0  0  0  0  0  0  0  0  0  0
   -0.7500   -1.2990    0.0000 C   0  0  0  0  0  0  0  0  0  0  0  0
   -1.5000    0.0000    0.0000 C   0  0  0  0  0  0  0  0  0  0  0  0
   -3.0000    0.0000    0.0000 C   0  0  0  0  0  0  0  0  0  0  0  0
   -3.7500   -1.2990    0.0000 O   0  0  0  0  0  0  0  0  0  0  0  0
   -3.7500    1.2990    0.0000 N   0  0  0  0  0  0  0  0  0  0  0  0
   -5.2500    1.2990    0.0000 C   0  0  0  0  0  0  0  0  0  0  0  0
   -6.0000    2.5981    0.0000 C   0  0  0  0  0  0  0  0  0  0  0  0
   -7.5000    2.5981    0.0000 C   0  0  0  0  0  0  0  0  0  0  0  0
   -8.2500    3.8971    0.0000 N   0  0  0  0  0  0  0  0  0  0  0  0
   -9.5490    3.1471    0.0000 C   0  0  0  0  0  0  0  0  0  0  0  0
   -6.9510    4.6471    0.0000 C   0  0  0  0  0  0  0  0  0  0  0  0
   -9.0000    5.1962    0.0000 C   0  0  0  0  0  0  0  0  0  0  0  0
   -0.7500    1.2990    0.0000 C   0  0  0  0  0  0  0  0  0  0  0  0
    0.7500    1.2990    0.0000 C   0  0  0  0  0  0  0  0  0  0  0  0
    0.0000    6.1962    0.0000 I   0  0  0  0  0  0  0  0  0  0  0  0
  1  2  1  0
  2  3  1  0
  2  4  1  0
  2  5  1  0
  5  6  1  0
  5  7  1  0
  5  8  1  0
  8  9  1  0
  8 10  1  0
  8 11  1  0
 11 12  1  0
 11 13  1  0
 11 14  1  0
 14 15  1  0
 14 16  1  0
 14 17  1  0
 17 18  1  0
 17 19  1  0
 17 20  1  0
 20 21  1  0
 20 22  1  0
 20 23  1  0
 23 24  1  0
 23 25  1  0
 23 26  1  0
 26 27  1  0
 26 28  1  0
 26 29  1  0
 29 30  1  0
 30 31  2  0
 31 32  1  0
 32 33  2  0
 33 34  1  0
 34 35  2  0
 34 36  1  0
 36 37  1  0
 37 38  1  0
 38 39  1  0
 39 40  1  0
 40 41  1  0
 40 42  1  0
 40 43  1  0
 33 44  1  0
 44 45  2  0
 45 30  1  0
M  CHG  2  40   1  46  -1
M  END
$$$$

     RDKit          2D

 26 24  0  0  0  0  0  0  0  0999 V2000
   -2.0490   -0.5490    0.0000 O   0  0  0  0  0  0  0  0  0  0  0  0
   -1.2990    0.7500    0.0000 S   0  0  0  0  0  0  0  0  0  0  0  0
   -0.5490    2.0490    0.0000 O   0  0  0  0  0  0  0  0  0  0  0  0
   -2.5981    1.5000    0.0000 O   0  0  0  0  0  0  0  0  0  0  0  0
    0.0000    0.0000    0.0000 C   0  0  0  0  0  0  0  0  0  0  0  0
    1.2990    0.7500    0.0000 C   0  0  0  0  0  0  0  0  0  0  0  0
    2.5981   -0.0000    0.0000 C   0  0  0  0  0  0  0  0  0  0  0  0
    3.3481    1.2990    0.0000 F   0  0  0  0  0  0  0  0  0  0  0  0
    1.8481   -1.2990    0.0000 F   0  0  0  0  0  0  0  0  0  0  0  0
    3.8971   -0.7500    0.0000 C   0  0  0  0  0  0  0  0  0  0  0  0
    3.1471   -2.0490    0.0000 F   0  0  0  0  0  0  0  0  0  0  0  0
    4.6471    0.5490    0.0000 F   0  0  0  0  0  0  0  0  0  0  0  0
    5.1962   -1.5000    0.0000 C   0  0  0  0  0  0  0  0  0  0  0  0
    5.9462   -0.2010    0.0000 F   0  0  0  0  0  0  0  0  0  0  0  0
    4.4462   -2.7990    0.0000 F   0  0  0  0  0  0  0  0  0  0  0  0
    6.4952   -2.2500    0.0000 C   0  0  0  0  0  0  0  0  0  0  0  0
    5.7452   -3.5490    0.0000 F   0  0  0  0  0  0  0  0  0  0  0  0
    7.2452   -0.9510    0.0000 F   0  0  0  0  0  0  0  0  0  0  0  0
    7.7942   -3.0000    0.0000 C   0  0  0  0  0  0  0  0  0  0  0  0
    8.5442   -1.7010    0.0000 F   0  0  0  0  0  0  0  0  0  0  0  0
    7.0442   -4.2990    0.0000 F   0  0  0  0  0  0  0  0  0  0  0  0
    9.0933   -3.7500    0.0000 C   0  0  0  0  0  0  0  0  0  0  0  0
   10.3923   -4.5000    0.0000 F   0  0  0  0  0  0  0  0  0  0  0  0
    8.3433   -5.0490    0.0000 F   0  0  0  0  0  0  0  0  0  0  0  0
    9.8433   -2.4510    0.0000 F   0  0  0  0  0  0  0  0  0  0  0  0
    0.0000    3.0490    0.0000 N   0  0  0  0  0  0  0  0  0  0  0  0
  1  2  2  0
  2  3  2  0
  2  4  1  0
  2  5  1  0
  5  6  1  0
  6  7  1  0
  7  8  1  0
  7  9  1  0
  7 10  1  0
 10 11  1  0
 10 12  1  0
 10 13  1  0
 13 14  1  0
 13 15  1  0
 13 16  1  0
 16 17  1  0
 16 18  1  0
 16 19  1  0
 19 20  1  0
 19 21  1  0
 19 22  1  0
 22 23  1  0
 22 24  1  0
 22 25  1  0
M  CHG  2   4  -1  26   1
M  END
$$$$

     RDKit          2D

 80 79  0  0  0  0  0  0  0  0999 V2000
   -1.5000    0.0000    0.0000 F   0  0  0  0  0  0  0  0  0  0  0  0
    0.0000    0.0000    0.0000 C   0  0  0  0  0  0  0  0  0  0  0  0
    0.0000    1.5000    0.0000 F   0  0  0  0  0  0  0  0  0  0  0  0
   -0.0000   -1.5000    0.0000 F   0  0  0  0  0  0  0  0  0  0  0  0
    1.5000    0.0000    0.0000 C   0  0  0  0  0  0  0  0  0  0  0  0
    1.5000    1.5000    0.0000 F   0  0  0  0  0  0  0  0  0  0  0  0
    1.5000   -1.5000    0.0000 F   0  0  0  0  0  0  0  0  0  0  0  0
    3.0000    0.0000    0.0000 C   0  0  0  0  0  0  0  0  0  0  0  0
    3.0000   -1.5000    0.0000 F   0  0  0  0  0  0  0  0  0  0  0  0
    3.0000    1.5000    0.0000 F   0  0  0  0  0  0  0  0  0  0  0  0
    4.5000    0.0000    0.0000 C   0  0  0  0  0  0  0  0  0  0  0  0
    4.5000    1.5000    0.0000 F   0  0  0  0  0  0  0  0  0  0  0  0
    4.5000   -1.5000    0.0000 F   0  0  0  0  0  0  0  0  0  0  0  0
    6.0000    0.0000    0.0000 C   0  0  0  0  0  0  0  0  0  0  0  0
    6.0000   -1.5000    0.0000 F   0  0  0  0  0  0  0  0  0  0  0  0
    6.0000    1.5000    0.0000 F   0  0  0  0  0  0  0  0  0  0  0  0
    7.5000    0.0000    0.0000 C   0  0  0  0  0  0  0  0  0  0  0  0
    7.5000    1.5000    0.0000 F   0  0  0  0  0  0  0  0  0  0  0  0
    7.5000   -1.5000    0.0000 F   0  0  0  0  0  0  0  0  0  0  0  0
    9.0000    0.0000    0.0000 C   0  0  0  0  0  0  0  0  0  0  0  0
    9.0000   -1.5000    0.0000 F   0  0  0  0  0  0  0  0  0  0  0  0
    9.0000    1.5000    0.0000 F   0  0  0  0  0  0  0  0  0  0  0  0
   10.5000    0.0000    0.0000 C   0  0  0  0  0  0  0  0  0  0  0  0
   10.5000    1.5000    0.0000 F   0  0  0  0  0  0  0  0  0  0  0  0
   10.5000   -1.5000    0.0000 F   0  0  0  0  0  0  0  0  0  0  0  0
   12.0000    0.0000    0.0000 C   0  0  0  0  0  0  0  0  0  0  0  0
   12.0000   -1.5000    0.0000 F   0  0  0  0  0  0  0  0  0  0  0  0
   12.0000    1.5000    0.0000 F   0  0  0  0  0  0  0  0  0  0  0  0
   13.5000    0.0000    0.0000 C   0  0  0  0  0  0  0  0  0  0  0  0
   13.5000    1.5000    0.0000 F   0  0  0  0  0  0  0  0  0  0  0  0
   13.5000   -1.5000    0.0000 F   0  0  0  0  0  0  0  0  0  0  0  0
   15.0000    0.0000    0.0000 C   0  0  0  0  0  0  0  0  0  0  0  0
   15.0000   -1.5000    0.0000 F   0  0  0  0  0  0  0  0  0  0  0  0
   15.0000    1.5000    0.0000 F   0  0  0  0  0  0  0  0  0  0  0  0
   16.5000    0.0000    0.0000 C   0  0  0  0  0  0  0  0  0  0  0  0
   16.5000    1.5000    0.0000 F   0  0  0  0  0  0  0  0  0  0  0  0
   16.5000   -1.5000    0.0000 F   0  0  0  0  0  0  0  0  0  0  0  0
   18.0000    0.0000    0.0000 C   0  0  0  0  0  0  0  0  0  0  0  0
   18.0000   -1.5000    0.0000 F   0  0  0  0  0  0  0  0  0  0  0  0
   18.0000    1.5000    0.0000 F   0  0  0  0  0  0  0  0  0  0  0  0
   19.5000    0.0000    0.0000 C   0  0  0  0  0  0  0  0  0  0  0  0
   19.5000   -1.5000    0.0000 F   0  0  0  0  0  0  0  0  0  0  0  0
   19.5000    1.5000    0.0000 F   0  0  0  0  0  0  0  0  0  0  0  0
   21.0000    0.0000    0.0000 C   0  0  0  0  0  0  0  0  0  0  0  0
   21.0000    1.5000    0.0000 F   0  0  0  0  0  0  0  0  0  0  0  0
   21.0000   -1.5000    0.0000 F   0  0  0  0  0  0  0  0  0  0  0  0
   22.5000    0.0000    0.0000 C   0  0  0  0  0  0  0  0  0  0  0  0
   22.5000   -1.5000    0.0000 F   0  0  0  0  0  0  0  0  0  0  0  0
   22.5000    1.5000    0.0000 F   0  0  0  0  0  0  0  0  0  0  0  0
   24.0000    0.0000    0.0000 C   0  0  0  0  0  0  0  0  0  0  0  0
   24.0000    1.5000    0.0000 F   0  0  0  0  0  0  0  0  0  0  0  0
   24.0000   -1.5000    0.0000 F   0  0  0  0  0  0  0  0  0  0  0  0
   25.5000    0.0000    0.0000 C   0  0  0  0  0  0  0  0  0  0  0  0
   25.5000   -1.5000    0.0000 F   0  0  0  0  0  0  0  0  0  0  0  0
   25.5000    1.5000    0.0000 F   0  0  0  0  0  0  0  0  0  0  0  0
   27.0000    0.0000    0.0000 C   0  0  0  0  0  0  0  0  0  0  0  0
   27.0000    1.5000    0.0000 F   0  0  0  0  0  0  0  0  0  0  0  0
   27.0000   -1.5000    0.0000 F   0  0  0  0  0  0  0  0  0  0  0  0
   28.5000    0.0000    0.0000 C   0  0  0  0  0  0  0  0  0  0  0  0
   28.5000   -1.5000    0.0000 F   0  0  0  0  0  0  0  0  0  0  0  0
   28.5000    1.5000    0.0000 F   0  0  0  0  0  0  0  0  0  0  0  0
   30.0000    0.0000    0.0000 C   0  0  0  0  0  0  0  0  0  0  0  0
   30.0000    1.5000    0.0000 F   0  0  0  0  0  0  0  0  0  0  0  0
   30.0000   -1.5000    0.0000 F   0  0  0  0  0  0  0  0  0  0  0  0
   31.5000    0.0000    0.0000 C   0  0  0  0  0  0  0  0  0  0  0  0
   31.5000   -1.5000    0.0000 F   0  0  0  0  0  0  0  0  0  0  0  0
   31.5000    1.5000    0.0000 F   0  0  0  0  0  0  0  0  0  0  0  0
   33.0000    0.0000    0.0000 C   0  0  0  0  0  0  0  0  0  0  0  0
   33.0000    1.5000    0.0000 F   0  0  0  0  0  0  0  0  0  0  0  0
   33.0000   -1.5000    0.0000 F   0  0  0  0  0  0  0  0  0  0  0  0
   34.5000    0.0000    0.0000 C   0  0  0  0  0  0  0  0  0  0  0  0
   34.5000   -1.5000    0.0000 F   0  0  0  0  0  0  0  0  0  0  0  0
   34.5000    1.5000    0.0000 F   0  0  0  0  0  0  0  0  0  0  0  0
   36.0000    0.0000    0.0000 C   0  0  0  0  0  0  0  0  0  0  0  0
   36.0000    1.5000    0.0000 F   0  0  0  0  0  0  0  0  0  0  0  0
   36.0000   -1.5000    0.0000 F   0  0  0  0  0  0  0  0  0  0  0  0
   37.5000    0.0000    0.0000 C   0  0  0  0  0  0  0  0  0  0  0  0
   39.0000    0.0000    0.0000 F   0  0  0  0  0  0  0  0  0  0  0  0
   37.5000   -1.5000    0.0000 F   0  0  0  0  0  0  0  0  0  0  0  0
   37.5000    1.5000    0.0000 I   0  0  0  0  0  0  0  0  0  0  0  0
  1  2  1  0
  2  3  1  0
  2  4  1  0
  2  5  1  0
  5  6  1  0
  5  7  1  0
  5  8  1  0
  8  9  1  0
  8 10  1  0
  8 11  1  0
 11 12  1  0
 11 13  1  0
 11 14  1  0
 14 15  1  0
 14 16  1  0
 14 17  1  0
 17 18  1  0
 17 19  1  0
 17 20  1  0
 20 21  1  0
 20 22  1  0
 20 23  1  0
 23 24  1  0
 23 25  1  0
 23 26  1  0
 26 27  1  0
 26 28  1  0
 26 29  1  0
 29 30  1  0
 29 31  1  0
 29 32  1  0
 32 33  1  0
 32 34  1  0
 32 35  1  0
 35 36  1  0
 35 37  1  0
 35 38  1  0
 38 39  1  0
 38 40  1  0
 38 41  1  0
 41 42  1  0
 41 43  1  0
 41 44  1  0
 44 45  1  0
 44 46  1  0
 44 47  1  0
 47 48  1  0
 47 49  1  0
 47 50  1  0
 50 51  1  0
 50 52  1  0
 50 53  1  0
 53 54  1  0
 53 55  1  0
 53 56  1  0
 56 57  1  0
 56 58  1  0
 56 59  1  0
 59 60  1  0
 59 61  1  0
 59 62  1  0
 62 63  1  0
 62 64  1  0
 62 65  1  0
 65 66  1  0
 65 67  1  0
 65 68  1  0
 68 69  1  0
 68 70  1  0
 68 71  1  0
 71 72  1  0
 71 73  1  0
 71 74  1  0
 74 75  1  0
 74 76  1  0
 74 77  1  0
 77 78  1  0
 77 79  1  0
 77 80  1  0
M  END
$$$$

     RDKit          2D

 25 23  0  0  0  0  0  0  0  0999 V2000
    7.0981    4.0981    0.0000 C   0  0  0  0  0  0  0  0  0  0  0  0
    5.7990    3.3481    0.0000 N   0  0  0  0  0  0  0  0  0  0  0  0
    4.5000    2.5981    0.0000 C   0  0  0  0  0  0  0  0  0  0  0  0
    6.5490    2.0490    0.0000 C   0  0  0  0  0  0  0  0  0  0  0  0
    5.0490    4.6471    0.0000 C   0  0  0  0  0  0  0  0  0  0  0  0
    3.5490    4.6471    0.0000 C   0  0  0  0  0  0  0  0  0  0  0  0
    2.7990    5.9462    0.0000 C   0  0  0  0  0  0  0  0  0  0  0  0
    1.2990    5.9462    0.0000 N   0  0  0  0  0  0  0  0  0  0  0  0
    0.5490    7.2452    0.0000 S   0  0  0  0  0  0  0  0  0  0  0  0
    1.8481    7.9952    0.0000 O   0  0  0  0  0  0  0  0  0  0  0  0
   -0.0876    6.7654    0.0000 O   0  0  0  0  0  0  0  0  0  0  0  0
   -0.2010    8.5442    0.0000 C   0  0  0  0  0  0  0  0  0  0  0  0
    1.0981    9.2942    0.0000 F   0  0  0  0  0  0  0  0  0  0  0  0
   -0.9510    9.8433    0.0000 F   0  0  0  0  0  0  0  0  0  0  0  0
   -1.5000    7.7942    0.0000 C   0  0  0  0  0  0  0  0  0  0  0  0
   -1.1539    6.9789    0.0000 F   0  0  0  0  0  0  0  0  0  0  0  0
   -2.2500    9.0933    0.0000 F   0  0  0  0  0  0  0  0  0  0  0  0
   -2.7990    7.0442    0.0000 C   0  0  0  0  0  0  0  0  0  0  0  0
   -3.5490    8.3433    0.0000 F   0  0  0  0  0  0  0  0  0  0  0  0
   -2.0490    5.7452    0.0000 F   0  0  0  0  0  0  0  0  0  0  0  0
   -4.0981    6.2942    0.0000 C   0  0  0  0  0  0  0  0  0  0  0  0
   -5.3971    5.5442    0.0000 F   0  0  0  0  0  0  0  0  0  0  0  0
   -3.3481    4.9952    0.0000 F   0  0  0  0  0  0  0  0  0  0  0  0
   -4.8481    7.5933    0.0000 F   0  0  0  0  0  0  0  0  0  0  0  0
    0.0000   10.8433    0.0000 I   0  0  0  0  0  0  0  0  0  0  0  0
  1  2  1  0
  2  3  1  0
  2  4  1  0
  2  5  1  0
  5  6  1  0
  6  7  1  0
  7  8  1  0
  8  9  1  0
  9 10  2  0
  9 11  2  0
  9 12  1  0
 12 13  1  0
 12 14  1  0
 12 15  1  0
 15 16  1  0
 15 17  1  0
 15 18  1  0
 18 19  1  0
 18 20  1  0
 18 21  1  0
 21 22  1  0
 21 23  1  0
 21 24  1  0
M  CHG  2   2   1  25  -1
M  END
$$$$

     RDKit          2D

 17 15  0  0  0  0  0  0  0  0999 V2000
   -0.0000   -1.5000    0.0000 O   0  0  0  0  0  0  0  0  0  0  0  0
    0.0000    0.0000    0.0000 C   0  0  0  0  0  0  0  0  0  0  0  0
   -1.2990    0.7500    0.0000 O   0  0  0  0  0  0  0  0  0  0  0  0
    1.2990    0.7500    0.0000 C   0  0  0  0  0  0  0  0  0  0  0  0
    2.0490   -0.5490    0.0000 F   0  0  0  0  0  0  0  0  0  0  0  0
    0.5490    2.0490    0.0000 F   0  0  0  0  0  0  0  0  0  0  0  0
    2.5981    1.5000    0.0000 C   0  0  0  0  0  0  0  0  0  0  0  0
    1.8481    2.7990    0.0000 F   0  0  0  0  0  0  0  0  0  0  0  0
    3.3481    0.2010    0.0000 F   0  0  0  0  0  0  0  0  0  0  0  0
    3.8971    2.2500    0.0000 C   0  0  0  0  0  0  0  0  0  0  0  0
    4.6471    0.9510    0.0000 F   0  0  0  0  0  0  0  0  0  0  0  0
    3.1471    3.5490    0.0000 F   0  0  0  0  0  0  0  0  0  0  0  0
    5.1962    3.0000    0.0000 C   0  0  0  0  0  0  0  0  0  0  0  0
    6.4952    3.7500    0.0000 F   0  0  0  0  0  0  0  0  0  0  0  0
    4.4462    4.2990    0.0000 F   0  0  0  0  0  0  0  0  0  0  0  0
    5.9462    1.7010    0.0000 F   0  0  0  0  0  0  0  0  0  0  0  0
    0.0000    5.2990    0.0000 N   0  0  0  0  0  0  0  0  0  0  0  0
  1  2  2  0
  2  3  1  0
  2  4  1  0
  4  5  1  0
  4  6  1  0
  4  7  1  0
  7  8  1  0
  7  9  1  0
  7 10  1  0
 10 11  1  0
 10 12  1  0
 10 13  1  0
 13 14  1  0
 13 15  1  0
 13 16  1  0
M  CHG  2   3  -1  17   1
M  END
$$$$

     RDKit          2D

 28 26  0  0  0  0  0  0  0  0999 V2000
    7.0981    4.0981    0.0000 C   0  0  0  0  0  0  0  0  0  0  0  0
    5.7990    3.3481    0.0000 N   0  0  0  0  0  0  0  0  0  0  0  0
    4.5000    2.5981    0.0000 C   0  0  0  0  0  0  0  0  0  0  0  0
    6.5490    2.0490    0.0000 C   0  0  0  0  0  0  0  0  0  0  0  0
    5.0490    4.6471    0.0000 C   0  0  0  0  0  0  0  0  0  0  0  0
    3.5490    4.6471    0.0000 C   0  0  0  0  0  0  0  0  0  0  0  0
    2.7990    5.9462    0.0000 C   0  0  0  0  0  0  0  0  0  0  0  0
    1.2990    5.9462    0.0000 N   0  0  0  0  0  0  0  0  0  0  0  0
    0.5490    7.2452    0.0000 S   0  0  0  0  0  0  0  0  0  0  0  0
    1.8481    7.9952    0.0000 O   0  0  0  0  0  0  0  0  0  0  0  0
   -0.0876    6.7654    0.0000 O   0  0  0  0  0  0  0  0  0  0  0  0
   -0.2010    8.5442    0.0000 C   0  0  0  0  0  0  0  0  0  0  0  0
    1.0981    9.2942    0.0000 F   0  0  0  0  0  0  0  0  0  0  0  0
   -0.9510    9.8433    0.0000 F   0  0  0  0  0  0  0  0  0  0  0  0
   -1.5000    7.7942    0.0000 C   0  0  0  0  0  0  0  0  0  0  0  0
   -1.1539    6.9789    0.0000 F   0  0  0  0  0  0  0  0  0  0  0  0
   -2.2500    9.0933    0.0000 F   0  0  0  0  0  0  0  0  0  0  0  0
   -2.7990    7.0442    0.0000 C   0  0  0  0  0  0  0  0  0  0  0  0
   -2.0490    5.7452    0.0000 F   0  0  0  0  0  0  0  0  0  0  0  0
   -3.5490    8.3433    0.0000 F   0  0  0  0  0  0  0  0  0  0  0  0
   -4.0981    6.2942    0.0000 C   0  0  0  0  0  0  0  0  0  0  0  0
   -3.3481    4.9952    0.0000 F   0  0  0  0  0  0  0  0  0  0  0  0
   -4.8481    7.5933    0.0000 F   0  0  0  0  0  0  0  0  0  0  0  0
   -5.3971    5.5442    0.0000 C   0  0  0  0  0  0  0  0  0  0  0  0
   -6.6962    4.7942    0.0000 F   0  0  0  0  0  0  0  0  0  0  0  0
   -6.1471    6.8433    0.0000 F   0  0  0  0  0  0  0  0  0  0  0  0
   -4.6471    4.2452    0.0000 F   0  0  0  0  0  0  0  0  0  0  0  0
    0.0000   10.8433    0.0000 Cl  0  0  0  0  0  0  0  0  0  0  0  0
  1  2  1  0
  2  3  1  0
  2  4  1  0
  2  5  1  0
  5  6  1  0
  6  7  1  0
  7  8  1  0
  8  9  1  0
  9 10  2  0
  9 11  2  0
  9 12  1  0
 12 13  1  0
 12 14  1  0
 12 15  1  0
 15 16  1  0
 15 17  1  0
 15 18  1  0
 18 19  1  0
 18 20  1  0
 18 21  1  0
 21 22  1  0
 21 23  1  0
 21 24  1  0
 24 25  1  0
 24 26  1  0
 24 27  1  0
M  CHG  2   2   1  28  -1
M  END
$$$$

     RDKit          2D

 20 18  0  0  0  0  0  0  0  0999 V2000
    0.0000    0.0000    0.0000 C   0  0  0  0  0  0  0  0  0  0  0  0
    1.2990    0.7500    0.0000 C   0  0  0  0  0  0  0  0  0  0  0  0
    2.5981   -0.0000    0.0000 O   0  0  0  0  0  0  0  0  0  0  0  0
    3.8971    0.7500    0.0000 P   0  0  0  0  0  0  0  0  0  0  0  0
    5.1962   -0.0000    0.0000 C   0  0  0  0  0  0  0  0  0  0  0  0
    6.4952    0.7500    0.0000 C   0  0  0  0  0  0  0  0  0  0  0  0
    3.8971    2.2500    0.0000 O   0  0  0  0  0  0  0  0  0  0  0  0
    5.1962    3.0000    0.0000 C   0  0  0  0  0  0  0  0  0  0  0  0
    5.1962    4.5000    0.0000 C   0  0  0  0  0  0  0  0  0  0  0  0
   -1.5000    7.0000    0.0000 F   0  0  0  0  0  0  0  0  0  0  0  0
    0.0000    7.0000    0.0000 C   0  0  0  0  0  0  0  0  0  0  0  0
    0.0000    8.5000    0.0000 F   0  0  0  0  0  0  0  0  0  0  0  0
   -0.0000    5.5000    0.0000 F   0  0  0  0  0  0  0  0  0  0  0  0
    1.5000    7.0000    0.0000 C   0  0  0  0  0  0  0  0  0  0  0  0
    1.5000    5.5000    0.0000 F   0  0  0  0  0  0  0  0  0  0  0  0
    1.5000    8.5000    0.0000 I   0  0  0  0  0  0  0  0  0  0  0  0
    3.0000    7.0000    0.0000 C   0  0  0  0  0  0  0  0  0  0  0  0
    4.5000    7.0000    0.0000 F   0  0  0  0  0  0  0  0  0  0  0  0
    3.0000    8.5000    0.0000 F   0  0  0  0  0  0  0  0  0  0  0  0
    3.0000    5.5000    0.0000 F   0  0  0  0  0  0  0  0  0  0  0  0
  1  2  1  0
  2  3  1  0
  3  4  1  0
  4  5  1  0
  5  6  1  0
  4  7  1  0
  7  8  1  0
  8  9  1  0
 10 11  1  0
 11 12  1  0
 11 13  1  0
 11 14  1  0
 14 15  1  0
 14 16  1  0
 14 17  1  0
 17 18  1  0
 17 19  1  0
 17 20  1  0
M  END
$$$$

     RDKit          2D

 17 16  0  0  0  0  0  0  0  0999 V2000
    2.5981    4.5000    0.0000 C   0  0  0  0  0  0  0  0  0  0  0  0
    2.5981    3.0000    0.0000 C   0  0  0  0  0  0  0  0  0  0  0  0
    3.8971    2.2500    0.0000 C   0  0  0  0  0  0  0  0  0  0  0  0
    3.8971    0.7500    0.0000 C   0  0  0  0  0  0  0  0  0  0  0  0
    5.1962   -0.0000    0.0000 C   0  0  0  0  0  0  0  0  0  0  0  0
    5.1962   -1.5000    0.0000 F   0  0  0  0  0  0  0  0  0  0  0  0
    6.4952    0.7500    0.0000 C   0  0  0  0  0  0  0  0  0  0  0  0
    7.2452   -0.5490    0.0000 F   0  0  0  0  0  0  0  0  0  0  0  0
    5.7452    2.0490    0.0000 F   0  0  0  0  0  0  0  0  0  0  0  0
    7.7942    1.5000    0.0000 C   0  0  0  0  0  0  0  0  0  0  0  0
    9.0933    2.2500    0.0000 F   0  0  0  0  0  0  0  0  0  0  0  0
    8.5442    0.2010    0.0000 F   0  0  0  0  0  0  0  0  0  0  0  0
    7.0442    2.7990    0.0000 F   0  0  0  0  0  0  0  0  0  0  0  0
    2.5981   -0.0000    0.0000 C   0  0  0  0  0  0  0  0  0  0  0  0
    1.2990   -0.7500    0.0000 F   0  0  0  0  0  0  0  0  0  0  0  0
    1.8481    1.2990    0.0000 F   0  0  0  0  0  0  0  0  0  0  0  0
    3.3481   -1.2990    0.0000 F   0  0  0  0  0  0  0  0  0  0  0  0
  1  2  2  0
  2  3  1  0
  3  4  1  0
  4  5  2  3
  5  6  1  0
  5  7  1  0
  7  8  1  0
  7  9  1  0
  7 10  1  0
 10 11  1  0
 10 12  1  0
 10 13  1  0
  4 14  1  0
 14 15  1  0
 14 16  1  0
 14 17  1  0
M  END
$$$$

     RDKit          2D

 38 37  0  0  0  0  0  0  0  0999 V2000
    3.0000   -1.5000    0.0000 O   0  0  0  0  0  0  0  0  0  0  0  0
    3.0000    0.0000    0.0000 S   0  0  0  0  0  0  0  0  0  0  0  0
    3.0000    1.5000    0.0000 O   0  0  0  0  0  0  0  0  0  0  0  0
    4.5000    0.0000    0.0000 O   0  0  0  0  0  0  0  0  0  0  0  0
    1.5000    0.0000    0.0000 C   0  0  0  0  0  0  0  0  0  0  0  0
    0.7500   -1.2990    0.0000 C   0  0  0  0  0  0  0  0  0  0  0  0
   -0.7500   -1.2990    0.0000 C   0  0  0  0  0  0  0  0  0  0  0  0
   -1.5000    0.0000    0.0000 C   0  0  0  0  0  0  0  0  0  0  0  0
   -3.0000    0.0000    0.0000 O   0  0  0  0  0  0  0  0  0  0  0  0
   -3.7500    1.2990    0.0000 C   0  0  0  0  0  0  0  0  0  0  0  0
   -4.5000    2.5981    0.0000 F   0  0  0  0  0  0  0  0  0  0  0  0
   -2.4510    2.0490    0.0000 C   0  0  0  0  0  0  0  0  0  0  0  0
   -2.4510    3.5490    0.0000 C   0  0  0  0  0  0  0  0  0  0  0  0
   -3.8317    4.1351    0.0000 F   0  0  0  0  0  0  0  0  0  0  0  0
   -1.1519    4.2990    0.0000 C   0  0  0  0  0  0  0  0  0  0  0  0
   -0.4207    3.3287    0.0000 F   0  0  0  0  0  0  0  0  0  0  0  0
    0.1471    5.0490    0.0000 C   0  0  0  0  0  0  0  0  0  0  0  0
    1.4462    5.7990    0.0000 F   0  0  0  0  0  0  0  0  0  0  0  0
   -0.1989    5.8644    0.0000 F   0  0  0  0  0  0  0  0  0  0  0  0
    0.8971    3.7500    0.0000 F   0  0  0  0  0  0  0  0  0  0  0  0
   -1.9019    5.5981    0.0000 C   0  0  0  0  0  0  0  0  0  0  0  0
   -2.6519    6.8971    0.0000 F   0  0  0  0  0  0  0  0  0  0  0  0
   -1.1946    6.1311    0.0000 F   0  0  0  0  0  0  0  0  0  0  0  0
   -3.2827    5.0120    0.0000 F   0  0  0  0  0  0  0  0  0  0  0  0
   -1.1519    1.2990    0.0000 C   0  0  0  0  0  0  0  0  0  0  0  0
    0.1471    0.5490    0.0000 F   0  0  0  0  0  0  0  0  0  0  0  0
   -0.4207    2.2694    0.0000 F   0  0  0  0  0  0  0  0  0  0  0  0
   -1.3716    0.5327    0.0000 F   0  0  0  0  0  0  0  0  0  0  0  0
   -5.0490    0.5490    0.0000 C   0  0  0  0  0  0  0  0  0  0  0  0
   -5.7990    1.8481    0.0000 F   0  0  0  0  0  0  0  0  0  0  0  0
   -4.2990   -0.7500    0.0000 F   0  0  0  0  0  0  0  0  0  0  0  0
   -6.3481   -0.2010    0.0000 C   0  0  0  0  0  0  0  0  0  0  0  0
   -7.6471   -0.9510    0.0000 F   0  0  0  0  0  0  0  0  0  0  0  0
   -5.5981   -1.5000    0.0000 F   0  0  0  0  0  0  0  0  0  0  0  0
   -7.0981    1.0981    0.0000 F   0  0  0  0  0  0  0  0  0  0  0  0
   -0.7500    1.2990    0.0000 C   0  0  0  0  0  0  0  0  0  0  0  0
    0.7500    1.2990    0.0000 C   0  0  0  0  0  0  0  0  0  0  0  0
    0.0000    7.8971    0.0000 Na  0  0  0  0  0 15  0  0  0  0  0  0
  1  2  2  0
  2  3  2  0
  2  4  1  0
  2  5  1  0
  5  6  2  0
  6  7  1  0
  7  8  2  0
  8  9  1  0
  9 10  1  0
 10 11  1  0
 10 12  1  0
 12 13  2  3
 13 14  1  0
 13 15  1  0
 15 16  1  0
 15 17  1  0
 17 18  1  0
 17 19  1  0
 17 20  1  0
 15 21  1  0
 21 22  1  0
 21 23  1  0
 21 24  1  0
 12 25  1  0
 25 26  1  0
 25 27  1  0
 25 28  1  0
 10 29  1  0
 29 30  1  0
 29 31  1  0
 29 32  1  0
 32 33  1  0
 32 34  1  0
 32 35  1  0
  8 36  1  0
 36 37  2  0
 37  5  1  0
M  CHG  2   4  -1  38   1
M  END
$$$$

     RDKit          2D

 64 63  0  0  0  0  0  0  0  0999 V2000
    0.0000    0.0000    0.0000 C   0  0  0  0  0  0  0  0  0  0  0  0
    1.2990    0.7500    0.0000 O   0  0  0  0  0  0  0  0  0  0  0  0
    2.5981   -0.0000    0.0000 C   0  0  0  0  0  0  0  0  0  0  0  0
    3.8971    0.7500    0.0000 C   0  0  0  0  0  0  0  0  0  0  0  0
    5.1962   -0.0000    0.0000 O   0  0  0  0  0  0  0  0  0  0  0  0
    6.4952    0.7500    0.0000 C   0  0  0  0  0  0  0  0  0  0  0  0
    7.7942   -0.0000    0.0000 C   0  0  0  0  0  0  0  0  0  0  0  0
    9.0933    0.7500    0.0000 O   0  0  0  0  0  0  0  0  0  0  0  0
   10.3923   -0.0000    0.0000 C   0  0  0  0  0  0  0  0  0  0  0  0
   11.6913    0.7500    0.0000 C   0  0  0  0  0  0  0  0  0  0  0  0
   12.9904   -0.0000    0.0000 O   0  0  0  0  0  0  0  0  0  0  0  0
   14.2894    0.7500    0.0000 C   0  0  0  0  0  0  0  0  0  0  0  0
   15.5885   -0.0000    0.0000 C   0  0  0  0  0  0  0  0  0  0  0  0
   16.8875    0.7500    0.0000 O   0  0  0  0  0  0  0  0  0  0  0  0
   18.1865   -0.0000    0.0000 C   0  0  0  0  0  0  0  0  0  0  0  0
   19.4856    0.7500    0.0000 C   0  0  0  0  0  0  0  0  0  0  0  0
   20.7846   -0.0000    0.0000 O   0  0  0  0  0  0  0  0  0  0  0  0
   22.0836    0.7500    0.0000 C   0  0  0  0  0  0  0  0  0  0  0  0
   23.3827   -0.0000    0.0000 C   0  0  0  0  0  0  0  0  0  0  0  0
   24.6817    0.7500    0.0000 O   0  0  0  0  0  0  0  0  0  0  0  0
   25.9808   -0.0000    0.0000 C   0  0  0  0  0  0  0  0  0  0  0  0
   27.2798    0.7500    0.0000 C   0  0  0  0  0  0  0  0  0  0  0  0
   28.5788   -0.0000    0.0000 O   0  0  0  0  0  0  0  0  0  0  0  0
   29.8779    0.7500    0.0000 C   0  0  0  0  0  0  0  0  0  0  0  0
   31.1769   -0.0000    0.0000 C   0  0  0  0  0  0  0  0  0  0  0  0
   32.4760    0.7500    0.0000 O   0  0  0  0  0  0  0  0  0  0  0  0
   33.7750   -0.0000    0.0000 C   0  0  0  0  0  0  0  0  0  0  0  0
   35.0740    0.7500    0.0000 C   0  0  0  0  0  0  0  0  0  0  0  0
   36.3731   -0.0000    0.0000 O   0  0  0  0  0  0  0  0  0  0  0  0
   37.6721    0.7500    0.0000 C   0  0  0  0  0  0  0  0  0  0  0  0
   38.9711   -0.0000    0.0000 C   0  0  0  0  0  0  0  0  0  0  0  0
   38.9711   -1.5000    0.0000 O   0  0  0  0  0  0  0  0  0  0  0  0
   40.2702    0.7500    0.0000 C   0  0  0  0  0  0  0  0  0  0  0  0
   41.5692   -0.0000    0.0000 C   0  0  0  0  0  0  0  0  0  0  0  0
   42.3192    1.2990    0.0000 F   0  0  0  0  0  0  0  0  0  0  0  0
   40.8192   -1.2990    0.0000 F   0  0  0  0  0  0  0  0  0  0  0  0
   42.8683   -0.7500    0.0000 C   0  0  0  0  0  0  0  0  0  0  0  0
   42.1183   -2.0490    0.0000 F   0  0  0  0  0  0  0  0  0  0  0  0
   43.6183    0.5490    0.0000 F   0  0  0  0  0  0  0  0  0  0  0  0
   44.1673   -1.5000    0.0000 C   0  0  0  0  0  0  0  0  0  0  0  0
   44.9173   -0.2010    0.0000 F   0  0  0  0  0  0  0  0  0  0  0  0
   43.4173   -2.7990    0.0000 F   0  0  0  0  0  0  0  0  0  0  0  0
   45.4663   -2.2500    0.0000 C   0  0  0  0  0  0  0  0  0  0  0  0
   44.7163   -3.5490    0.0000 F   0  0  0  0  0  0  0  0  0  0  0  0
   46.2163   -0.9510    0.0000 F   0  0  0  0  0  0  0  0  0  0  0  0
   46.7654   -3.0000    0.0000 C   0  0  0  0  0  0  0  0  0  0  0  0
   47.5154   -1.7010    0.0000 F   0  0  0  0  0  0  0  0  0  0  0  0
   46.0154   -4.2990    0.0000 F   0  0  0  0  0  0  0  0  0  0  0  0
   48.0644   -3.7500    0.0000 C   0  0  0  0  0  0  0  0  0  0  0  0
   47.3144   -5.0490    0.0000 F   0  0  0  0  0  0  0  0  0  0  0  0
   48.8144   -2.4510    0.0000 F   0  0  0  0  0  0  0  0  0  0  0  0
   49.3634   -4.5000    0.0000 C   0  0  0  0  0  0  0  0  0  0  0  0
   50.1134   -3.2010    0.0000 F   0  0  0  0  0  0  0  0  0  0  0  0
   48.6134   -5.7990    0.0000 F   0  0  0  0  0  0  0  0  0  0  0  0
   50.6625   -5.2500    0.0000 C   0  0  0  0  0  0  0  0  0  0  0  0
   49.9125   -6.5490    0.0000 F   0  0  0  0  0  0  0  0  0  0  0  0
   51.4125   -3.9510    0.0000 F   0  0  0  0  0  0  0  0  0  0  0  0
   51.9615   -6.0000    0.0000 C   0  0  0  0  0  0  0  0  0  0  0  0
   52.7115   -4.7010    0.0000 F   0  0  0  0  0  0  0  0  0  0  0  0
   51.2115   -7.2990    0.0000 F   0  0  0  0  0  0  0  0  0  0  0  0
   53.2606   -6.7500    0.0000 C   0  0  0  0  0  0  0  0  0  0  0  0
   54.5596   -7.5000    0.0000 F   0  0  0  0  0  0  0  0  0  0  0  0
   52.5106   -8.0490    0.0000 F   0  0  0  0  0  0  0  0  0  0  0  0
   54.0106   -5.4510    0.0000 F   0  0  0  0  0  0  0  0  0  0  0  0
  1  2  1  0
  2  3  1  0
  3  4  1  0
  4  5  1  0
  5  6  1  0
  6  7  1  0
  7  8  1  0
  8  9  1  0
  9 10  1  0
 10 11  1  0
 11 12  1  0
 12 13  1  0
 13 14  1  0
 14 15  1  0
 15 16  1  0
 16 17  1  0
 17 18  1  0
 18 19  1  0
 19 20  1  0
 20 21  1  0
 21 22  1  0
 22 23  1  0
 23 24  1  0
 24 25  1  0
 25 26  1  0
 26 27  1  0
 27 28  1  0
 28 29  1  0
 29 30  1  0
 30 31  1  0
 31 32  1  0
 31 33  1  0
 33 34  1  0
 34 35  1  0
 34 36  1  0
 34 37  1  0
 37 38  1  0
 37 39  1  0
 37 40  1  0
 40 41  1  0
 40 42  1  0
 40 43  1  0
 43 44  1  0
 43 45  1  0
 43 46  1  0
 46 47  1  0
 46 48  1  0
 46 49  1  0
 49 50  1  0
 49 51  1  0
 49 52  1  0
 52 53  1  0
 52 54  1  0
 52 55  1  0
 55 56  1  0
 55 57  1  0
 55 58  1  0
 58 59  1  0
 58 60  1  0
 58 61  1  0
 61 62  1  0
 61 63  1  0
 61 64  1  0
M  END
$$$$

     RDKit          2D

 47 46  0  0  0  0  0  0  0  0999 V2000
    0.0000    0.0000    0.0000 C   0  0  0  0  0  0  0  0  0  0  0  0
    1.2990    0.7500    0.0000 N   0  0  0  0  0  0  0  0  0  0  0  0
    2.5981    1.5000    0.0000 C   0  0  0  0  0  0  0  0  0  0  0  0
    2.0490   -0.5490    0.0000 C   0  0  0  0  0  0  0  0  0  0  0  0
    3.5490   -0.5490    0.0000 C   0  0  0  0  0  0  0  0  0  0  0  0
    4.2990   -1.8481    0.0000 C   0  0  0  0  0  0  0  0  0  0  0  0
    5.7990   -1.8481    0.0000 N   0  0  0  0  0  0  0  0  0  0  0  0
    6.5490   -3.1471    0.0000 C   0  0  0  0  0  0  0  0  0  0  0  0
    8.0490   -3.1471    0.0000 C   0  0  0  0  0  0  0  0  0  0  0  0
    8.7990   -1.8481    0.0000 O   0  0  0  0  0  0  0  0  0  0  0  0
    8.7990   -4.4462    0.0000 C   0  0  0  0  0  0  0  0  0  0  0  0
   10.2990   -4.4462    0.0000 C   0  0  0  0  0  0  0  0  0  0  0  0
   10.2990   -5.9462    0.0000 F   0  0  0  0  0  0  0  0  0  0  0  0
   10.2990   -2.9462    0.0000 F   0  0  0  0  0  0  0  0  0  0  0  0
   11.7990   -4.4462    0.0000 C   0  0  0  0  0  0  0  0  0  0  0  0
   11.7990   -2.9462    0.0000 F   0  0  0  0  0  0  0  0  0  0  0  0
   11.7990   -5.9462    0.0000 F   0  0  0  0  0  0  0  0  0  0  0  0
   13.2990   -4.4462    0.0000 C   0  0  0  0  0  0  0  0  0  0  0  0
   13.2990   -5.9462    0.0000 F   0  0  0  0  0  0  0  0  0  0  0  0
   13.2990   -2.9462    0.0000 F   0  0  0  0  0  0  0  0  0  0  0  0
   14.7990   -4.4462    0.0000 C   0  0  0  0  0  0  0  0  0  0  0  0
   14.7990   -2.9462    0.0000 F   0  0  0  0  0  0  0  0  0  0  0  0
   14.7990   -5.9462    0.0000 F   0  0  0  0  0  0  0  0  0  0  0  0
   16.2990   -4.4462    0.0000 C   0  0  0  0  0  0  0  0  0  0  0  0
   16.2990   -5.9462    0.0000 F   0  0  0  0  0  0  0  0  0  0  0  0
   16.2990   -2.9462    0.0000 F   0  0  0  0  0  0  0  0  0  0  0  0
   17.7990   -4.4462    0.0000 C   0  0  0  0  0  0  0  0  0  0  0  0
   17.7990   -2.9462    0.0000 F   0  0  0  0  0  0  0  0  0  0  0  0
   17.7990   -5.9462    0.0000 F   0  0  0  0  0  0  0  0  0  0  0  0
   19.2990   -4.4462    0.0000 C   0  0  0  0  0  0  0  0  0  0  0  0
   19.2990   -5.9462    0.0000 F   0  0  0  0  0  0  0  0  0  0  0  0
   19.2990   -2.9462    0.0000 F   0  0  0  0  0  0  0  0  0  0  0  0
   20.7990   -4.4462    0.0000 C   0  0  0  0  0  0  0  0  0  0  0  0
   20.7990   -2.9462    0.0000 F   0  0  0  0  0  0  0  0  0  0  0  0
   20.7990   -5.9462    0.0000 F   0  0  0  0  0  0  0  0  0  0  0  0
   22.2990   -4.4462    0.0000 C   0  0  0  0  0  0  0  0  0  0  0  0
   22.2990   -5.9462    0.0000 F   0  0  0  0  0  0  0  0  0  0  0  0
   22.2990   -2.9462    0.0000 F   0  0  0  0  0  0  0  0  0  0  0  0
   23.7990   -4.4462    0.0000 C   0  0  0  0  0  0  0  0  0  0  0  0
   25.2990   -4.4462    0.0000 F   0  0  0  0  0  0  0  0  0  0  0  0
   23.7990   -2.9462    0.0000 F   0  0  0  0  0  0  0  0  0  0  0  0
   23.7990   -5.9462    0.0000 F   0  0  0  0  0  0  0  0  0  0  0  0
    0.5490    2.0490    0.0000 C   0  0  0  0  0  0  0  0  0  0  0  0
    1.2990    3.3481    0.0000 C   0  0  0  0  0  0  0  0  0  0  0  0
    0.5490    4.6471    0.0000 C   0  0  0  0  0  0  0  0  0  0  0  0
   -0.9510    4.6471    0.0000 O   0  0  0  0  0  0  0  0  0  0  0  0
    1.2990    5.9462    0.0000 O   0  0  0  0  0  0  0  0  0  0  0  0
  1  2  1  0
  2  3  1  0
  2  4  1  0
  4  5  1  0
  5  6  1  0
  6  7  1  0
  7  8  1  0
  8  9  1  0
  9 10  1  0
  9 11  1  0
 11 12  1  0
 12 13  1  0
 12 14  1  0
 12 15  1  0
 15 16  1  0
 15 17  1  0
 15 18  1  0
 18 19  1  0
 18 20  1  0
 18 21  1  0
 21 22  1  0
 21 23  1  0
 21 24  1  0
 24 25  1  0
 24 26  1  0
 24 27  1  0
 27 28  1  0
 27 29  1  0
 27 30  1  0
 30 31  1  0
 30 32  1  0
 30 33  1  0
 33 34  1  0
 33 35  1  0
 33 36  1  0
 36 37  1  0
 36 38  1  0
 36 39  1  0
 39 40  1  0
 39 41  1  0
 39 42  1  0
  2 43  1  0
 43 44  1  0
 44 45  1  0
 45 46  2  0
 45 47  1  0
M  CHG  2   2   1  47  -1
M  END
$$$$

     RDKit          2D

 46 46  0  0  0  0  0  0  0  0999 V2000
    3.0000   -1.5000    0.0000 O   0  0  0  0  0  0  0  0  0  0  0  0
    3.0000    0.0000    0.0000 S   0  0  0  0  0  0  0  0  0  0  0  0
    3.0000    1.5000    0.0000 O   0  0  0  0  0  0  0  0  0  0  0  0
    1.5000    0.0000    0.0000 C   0  0  0  0  0  0  0  0  0  0  0  0
    0.7500   -1.2990    0.0000 C   0  0  0  0  0  0  0  0  0  0  0  0
   -0.7500   -1.2990    0.0000 C   0  0  0  0  0  0  0  0  0  0  0  0
   -1.5000    0.0000    0.0000 C   0  0  0  0  0  0  0  0  0  0  0  0
   -3.0000    0.0000    0.0000 O   0  0  0  0  0  0  0  0  0  0  0  0
   -3.7500    1.2990    0.0000 C   0  0  0  0  0  0  0  0  0  0  0  0
   -5.2500    1.2990    0.0000 C   0  0  0  0  0  0  0  0  0  0  0  0
   -6.0000   -0.0000    0.0000 C   0  0  0  0  0  0  0  0  0  0  0  0
   -6.7500   -1.2990    0.0000 F   0  0  0  0  0  0  0  0  0  0  0  0
   -6.8153    0.3461    0.0000 F   0  0  0  0  0  0  0  0  0  0  0  0
   -4.7010   -0.7500    0.0000 F   0  0  0  0  0  0  0  0  0  0  0  0
   -6.0000    2.5981    0.0000 C   0  0  0  0  0  0  0  0  0  0  0  0
   -4.7010    3.3481    0.0000 C   0  0  0  0  0  0  0  0  0  0  0  0
   -3.4019    4.0981    0.0000 F   0  0  0  0  0  0  0  0  0  0  0  0
   -5.0470    4.1634    0.0000 F   0  0  0  0  0  0  0  0  0  0  0  0
   -3.6589    2.2691    0.0000 F   0  0  0  0  0  0  0  0  0  0  0  0
   -6.7500    3.8971    0.0000 C   0  0  0  0  0  0  0  0  0  0  0  0
   -6.0426    4.4302    0.0000 F   0  0  0  0  0  0  0  0  0  0  0  0
   -7.5653    3.5511    0.0000 F   0  0  0  0  0  0  0  0  0  0  0  0
   -7.5000    5.1962    0.0000 C   0  0  0  0  0  0  0  0  0  0  0  0
   -8.2500    6.4952    0.0000 F   0  0  0  0  0  0  0  0  0  0  0  0
   -6.2010    5.9462    0.0000 F   0  0  0  0  0  0  0  0  0  0  0  0
   -8.7990    4.4462    0.0000 F   0  0  0  0  0  0  0  0  0  0  0  0
   -7.2990    1.8481    0.0000 C   0  0  0  0  0  0  0  0  0  0  0  0
   -7.8321    2.5554    0.0000 F   0  0  0  0  0  0  0  0  0  0  0  0
   -7.1605    0.9732    0.0000 F   0  0  0  0  0  0  0  0  0  0  0  0
   -8.5981    1.0981    0.0000 C   0  0  0  0  0  0  0  0  0  0  0  0
   -9.8971    0.3481    0.0000 F   0  0  0  0  0  0  0  0  0  0  0  0
   -9.3481    2.3971    0.0000 F   0  0  0  0  0  0  0  0  0  0  0  0
   -7.8481   -0.2010    0.0000 F   0  0  0  0  0  0  0  0  0  0  0  0
   -3.0000    2.5981    0.0000 C   0  0  0  0  0  0  0  0  0  0  0  0
   -2.2500    3.8971    0.0000 F   0  0  0  0  0  0  0  0  0  0  0  0
   -4.0790    3.6401    0.0000 F   0  0  0  0  0  0  0  0  0  0  0  0
   -1.7010    1.8481    0.0000 F   0  0  0  0  0  0  0  0  0  0  0  0
   -0.7500    1.2990    0.0000 C   0  0  0  0  0  0  0  0  0  0  0  0
    0.7500    1.2990    0.0000 C   0  0  0  0  0  0  0  0  0  0  0  0
    4.5000    0.0000    0.0000 N   0  0  0  0  0  0  0  0  0  0  0  0
    5.2500    1.2990    0.0000 C   0  0  0  0  0  0  0  0  0  0  0  0
    6.7500    1.2990    0.0000 C   0  0  0  0  0  0  0  0  0  0  0  0
    7.5000    2.5981    0.0000 O   0  0  0  0  0  0  0  0  0  0  0  0
    5.2500   -1.2990    0.0000 C   0  0  0  0  0  0  0  0  0  0  0  0
    6.7500   -1.2990    0.0000 C   0  0  0  0  0  0  0  0  0  0  0  0
    7.5000   -2.5981    0.0000 O   0  0  0  0  0  0  0  0  0  0  0  0
  1  2  2  0
  2  3  2  0
  2  4  1  0
  4  5  2  0
  5  6  1  0
  6  7  2  0
  7  8  1  0
  8  9  1  0
  9 10  2  3
 10 11  1  0
 11 12  1  0
 11 13  1  0
 11 14  1  0
 10 15  1  0
 15 16  1  0
 16 17  1  0
 16 18  1  0
 16 19  1  0
 15 20  1  0
 20 21  1  0
 20 22  1  0
 20 23  1  0
 23 24  1  0
 23 25  1  0
 23 26  1  0
 15 27  1  0
 27 28  1  0
 27 29  1  0
 27 30  1  0
 30 31  1  0
 30 32  1  0
 30 33  1  0
  9 34  1  0
 34 35  1  0
 34 36  1  0
 34 37  1  0
  7 38  1  0
 38 39  2  0
  2 40  1  0
 40 41  1  0
 41 42  1  0
 42 43  1  0
 40 44  1  0
 44 45  1  0
 45 46  1  0
 39  4  1  0
M  END
$$$$

     RDKit          2D

 40 37  0  0  0  0  0  0  0  0999 V2000
   -3.3481    1.2990    0.0000 O   0  0  0  0  0  0  0  0  0  0  0  0
   -2.5981    0.0000    0.0000 P   0  0  0  0  0  0  0  0  0  0  0  0
   -1.8481   -1.2990    0.0000 O   0  0  0  0  0  0  0  0  0  0  0  0
   -3.8971   -0.7500    0.0000 O   0  0  0  0  0  0  0  0  0  0  0  0
   -1.2990    0.7500    0.0000 O   0  0  0  0  0  0  0  0  0  0  0  0
    0.0000    0.0000    0.0000 C   0  0  0  0  0  0  0  0  0  0  0  0
    1.2990    0.7500    0.0000 C   0  0  0  0  0  0  0  0  0  0  0  0
    2.5981   -0.0000    0.0000 C   0  0  0  0  0  0  0  0  0  0  0  0
    3.3481    1.2990    0.0000 F   0  0  0  0  0  0  0  0  0  0  0  0
    1.8481   -1.2990    0.0000 F   0  0  0  0  0  0  0  0  0  0  0  0
    3.8971   -0.7500    0.0000 C   0  0  0  0  0  0  0  0  0  0  0  0
    3.1471   -2.0490    0.0000 F   0  0  0  0  0  0  0  0  0  0  0  0
    4.6471    0.5490    0.0000 F   0  0  0  0  0  0  0  0  0  0  0  0
    5.1962   -1.5000    0.0000 C   0  0  0  0  0  0  0  0  0  0  0  0
    5.9462   -0.2010    0.0000 F   0  0  0  0  0  0  0  0  0  0  0  0
    4.4462   -2.7990    0.0000 F   0  0  0  0  0  0  0  0  0  0  0  0
    6.4952   -2.2500    0.0000 C   0  0  0  0  0  0  0  0  0  0  0  0
    5.7452   -3.5490    0.0000 F   0  0  0  0  0  0  0  0  0  0  0  0
    7.2452   -0.9510    0.0000 F   0  0  0  0  0  0  0  0  0  0  0  0
    7.7942   -3.0000    0.0000 C   0  0  0  0  0  0  0  0  0  0  0  0
    8.5442   -1.7010    0.0000 F   0  0  0  0  0  0  0  0  0  0  0  0
    7.0442   -4.2990    0.0000 F   0  0  0  0  0  0  0  0  0  0  0  0
    9.0933   -3.7500    0.0000 C   0  0  0  0  0  0  0  0  0  0  0  0
    8.3433   -5.0490    0.0000 F   0  0  0  0  0  0  0  0  0  0  0  0
    9.8433   -2.4510    0.0000 F   0  0  0  0  0  0  0  0  0  0  0  0
   10.3923   -4.5000    0.0000 C   0  0  0  0  0  0  0  0  0  0  0  0
   11.1423   -3.2010    0.0000 F   0  0  0  0  0  0  0  0  0  0  0  0
    9.6423   -5.7990    0.0000 F   0  0  0  0  0  0  0  0  0  0  0  0
   11.6913   -5.2500    0.0000 C   0  0  0  0  0  0  0  0  0  0  0  0
   10.9413   -6.5490    0.0000 F   0  0  0  0  0  0  0  0  0  0  0  0
   12.4413   -3.9510    0.0000 F   0  0  0  0  0  0  0  0  0  0  0  0
   12.9904   -6.0000    0.0000 C   0  0  0  0  0  0  0  0  0  0  0  0
   13.7404   -4.7010    0.0000 F   0  0  0  0  0  0  0  0  0  0  0  0
   12.2404   -7.2990    0.0000 F   0  0  0  0  0  0  0  0  0  0  0  0
   14.2894   -6.7500    0.0000 C   0  0  0  0  0  0  0  0  0  0  0  0
   15.5885   -7.5000    0.0000 F   0  0  0  0  0  0  0  0  0  0  0  0
   13.5394   -8.0490    0.0000 F   0  0  0  0  0  0  0  0  0  0  0  0
   15.0394   -5.4510    0.0000 F   0  0  0  0  0  0  0  0  0  0  0  0
    0.0000    2.2990    0.0000 N   0  0  0  0  0  0  0  0  0  0  0  0
    0.0000    3.2990    0.0000 N   0  0  0  0  0  0  0  0  0  0  0  0
  1  2  2  0
  2  3  1  0
  2  4  1  0
  2  5  1  0
  5  6  1  0
  6  7  1  0
  7  8  1  0
  8  9  1  0
  8 10  1  0
  8 11  1  0
 11 12  1  0
 11 13  1  0
 11 14  1  0
 14 15  1  0
 14 16  1  0
 14 17  1  0
 17 18  1  0
 17 19  1  0
 17 20  1  0
 20 21  1  0
 20 22  1  0
 20 23  1  0
 23 24  1  0
 23 25  1  0
 23 26  1  0
 26 27  1  0
 26 28  1  0
 26 29  1  0
 29 30  1  0
 29 31  1  0
 29 32  1  0
 32 33  1  0
 32 34  1  0
 32 35  1  0
 35 36  1  0
 35 37  1  0
 35 38  1  0
M  CHG  4   3  -1   4  -1  39   1  40   1
M  END
$$$$

     RDKit          2D

 30 29  0  0  0  0  0  0  0  0999 V2000
    1.2990    2.2500    0.0000 C   0  0  0  0  0  0  0  0  0  0  0  0
    1.2990    0.7500    0.0000 N   0  0  0  0  0  0  0  0  0  0  0  0
    2.5981   -0.0000    0.0000 S   0  0  0  0  0  0  0  0  0  0  0  0
    3.3481    1.2990    0.0000 O   0  0  0  0  0  0  0  0  0  0  0  0
    2.1183   -0.6366    0.0000 O   0  0  0  0  0  0  0  0  0  0  0  0
    3.8971   -0.7500    0.0000 C   0  0  0  0  0  0  0  0  0  0  0  0
    4.6471    0.5490    0.0000 F   0  0  0  0  0  0  0  0  0  0  0  0
    5.1962   -1.5000    0.0000 F   0  0  0  0  0  0  0  0  0  0  0  0
    3.1471   -2.0490    0.0000 C   0  0  0  0  0  0  0  0  0  0  0  0
    2.3318   -1.7030    0.0000 F   0  0  0  0  0  0  0  0  0  0  0  0
    4.4462   -2.7990    0.0000 F   0  0  0  0  0  0  0  0  0  0  0  0
    2.3971   -3.3481    0.0000 C   0  0  0  0  0  0  0  0  0  0  0  0
    3.6962   -4.0981    0.0000 F   0  0  0  0  0  0  0  0  0  0  0  0
    1.0981   -2.5981    0.0000 F   0  0  0  0  0  0  0  0  0  0  0  0
    1.6471   -4.6471    0.0000 C   0  0  0  0  0  0  0  0  0  0  0  0
    0.3481   -3.8971    0.0000 F   0  0  0  0  0  0  0  0  0  0  0  0
    2.9462   -5.3971    0.0000 F   0  0  0  0  0  0  0  0  0  0  0  0
    0.8971   -5.9462    0.0000 C   0  0  0  0  0  0  0  0  0  0  0  0
    2.2779   -6.5322    0.0000 F   0  0  0  0  0  0  0  0  0  0  0  0
   -0.4019   -5.1962    0.0000 F   0  0  0  0  0  0  0  0  0  0  0  0
    0.1471   -7.2452    0.0000 C   0  0  0  0  0  0  0  0  0  0  0  0
   -1.1519   -6.4952    0.0000 F   0  0  0  0  0  0  0  0  0  0  0  0
   -0.6029   -8.5442    0.0000 C   0  0  0  0  0  0  0  0  0  0  0  0
   -1.3529   -9.8433    0.0000 F   0  0  0  0  0  0  0  0  0  0  0  0
   -1.9019   -7.7942    0.0000 F   0  0  0  0  0  0  0  0  0  0  0  0
    0.5950   -9.4470    0.0000 F   0  0  0  0  0  0  0  0  0  0  0  0
    1.4462   -7.9952    0.0000 C   0  0  0  0  0  0  0  0  0  0  0  0
    2.7452   -8.7452    0.0000 F   0  0  0  0  0  0  0  0  0  0  0  0
    0.8601   -9.3760    0.0000 F   0  0  0  0  0  0  0  0  0  0  0  0
    2.3489   -6.7973    0.0000 F   0  0  0  0  0  0  0  0  0  0  0  0
  1  2  1  0
  2  3  1  0
  3  4  2  0
  3  5  2  0
  3  6  1  0
  6  7  1  0
  6  8  1  0
  6  9  1  0
  9 10  1  0
  9 11  1  0
  9 12  1  0
 12 13  1  0
 12 14  1  0
 12 15  1  0
 15 16  1  0
 15 17  1  0
 15 18  1  0
 18 19  1  0
 18 20  1  0
 18 21  1  0
 21 22  1  0
 21 23  1  0
 23 24  1  0
 23 25  1  0
 23 26  1  0
 21 27  1  0
 27 28  1  0
 27 29  1  0
 27 30  1  0
M  END
$$$$

     RDKit          2D

 53 53  0  0  0  0  0  0  0  0999 V2000
   15.1160  -22.0836    0.0000 F   0  0  0  0  0  0  0  0  0  0  0  0
   14.3660  -20.7846    0.0000 C   0  0  0  0  0  0  0  0  0  0  0  0
   13.0670  -21.5346    0.0000 F   0  0  0  0  0  0  0  0  0  0  0  0
   15.6651  -20.0346    0.0000 F   0  0  0  0  0  0  0  0  0  0  0  0
   13.6160  -19.4856    0.0000 C   0  0  0  0  0  0  0  0  0  0  0  0
   14.9151  -18.7356    0.0000 F   0  0  0  0  0  0  0  0  0  0  0  0
   12.3170  -20.2356    0.0000 F   0  0  0  0  0  0  0  0  0  0  0  0
   12.8660  -18.1865    0.0000 C   0  0  0  0  0  0  0  0  0  0  0  0
   11.5670  -18.9365    0.0000 F   0  0  0  0  0  0  0  0  0  0  0  0
   14.1651  -17.4365    0.0000 F   0  0  0  0  0  0  0  0  0  0  0  0
   12.1160  -16.8875    0.0000 C   0  0  0  0  0  0  0  0  0  0  0  0
   13.4151  -16.1375    0.0000 F   0  0  0  0  0  0  0  0  0  0  0  0
   10.8170  -17.6375    0.0000 F   0  0  0  0  0  0  0  0  0  0  0  0
   11.3660  -15.5885    0.0000 C   0  0  0  0  0  0  0  0  0  0  0  0
   10.0670  -16.3385    0.0000 F   0  0  0  0  0  0  0  0  0  0  0  0
   12.6651  -14.8385    0.0000 F   0  0  0  0  0  0  0  0  0  0  0  0
   10.6160  -14.2894    0.0000 C   0  0  0  0  0  0  0  0  0  0  0  0
   11.9151  -13.5394    0.0000 F   0  0  0  0  0  0  0  0  0  0  0  0
    9.3170  -15.0394    0.0000 F   0  0  0  0  0  0  0  0  0  0  0  0
    9.8660  -12.9904    0.0000 C   0  0  0  0  0  0  0  0  0  0  0  0
    8.5670  -13.7404    0.0000 F   0  0  0  0  0  0  0  0  0  0  0  0
   11.1651  -12.2404    0.0000 F   0  0  0  0  0  0  0  0  0  0  0  0
    9.1160  -11.6913    0.0000 C   0  0  0  0  0  0  0  0  0  0  0  0
   10.4151  -10.9413    0.0000 F   0  0  0  0  0  0  0  0  0  0  0  0
    7.8170  -12.4413    0.0000 F   0  0  0  0  0  0  0  0  0  0  0  0
    8.3660  -10.3923    0.0000 C   0  0  0  0  0  0  0  0  0  0  0  0
    7.0670  -11.1423    0.0000 F   0  0  0  0  0  0  0  0  0  0  0  0
    9.6651   -9.6423    0.0000 F   0  0  0  0  0  0  0  0  0  0  0  0
    7.6160   -9.0933    0.0000 C   0  0  0  0  0  0  0  0  0  0  0  0
    8.9151   -8.3433    0.0000 F   0  0  0  0  0  0  0  0  0  0  0  0
    6.3170   -9.8433    0.0000 F   0  0  0  0  0  0  0  0  0  0  0  0
    6.8660   -7.7942    0.0000 C   0  0  0  0  0  0  0  0  0  0  0  0
    5.5670   -8.5442    0.0000 F   0  0  0  0  0  0  0  0  0  0  0  0
    8.1651   -7.0442    0.0000 F   0  0  0  0  0  0  0  0  0  0  0  0
    6.1160   -6.4952    0.0000 C   0  0  0  0  0  0  0  0  0  0  0  0
    7.4151   -5.7452    0.0000 F   0  0  0  0  0  0  0  0  0  0  0  0
    4.8170   -7.2452    0.0000 F   0  0  0  0  0  0  0  0  0  0  0  0
    5.3660   -5.1962    0.0000 C   0  0  0  0  0  0  0  0  0  0  0  0
    4.0670   -5.9462    0.0000 F   0  0  0  0  0  0  0  0  0  0  0  0
    6.6651   -4.4462    0.0000 F   0  0  0  0  0  0  0  0  0  0  0  0
    4.6160   -3.8971    0.0000 C   0  0  0  0  0  0  0  0  0  0  0  0
    5.9151   -3.1471    0.0000 F   0  0  0  0  0  0  0  0  0  0  0  0
    3.3170   -4.6471    0.0000 F   0  0  0  0  0  0  0  0  0  0  0  0
    3.8660   -2.5981    0.0000 C   0  0  0  0  0  0  0  0  0  0  0  0
    2.5670   -3.3481    0.0000 F   0  0  0  0  0  0  0  0  0  0  0  0
    5.1651   -1.8481    0.0000 F   0  0  0  0  0  0  0  0  0  0  0  0
    3.1160   -1.2990    0.0000 C   0  0  0  0  0  0  0  0  0  0  0  0
    4.4151   -0.5490    0.0000 F   0  0  0  0  0  0  0  0  0  0  0  0
    1.8170   -2.0490    0.0000 F   0  0  0  0  0  0  0  0  0  0  0  0
    2.3660    0.0000    0.0000 C   0  0  0  0  0  0  0  0  0  0  0  0
    0.8660    0.0000    0.0000 C   0  0  0  0  0  0  0  0  0  0  0  0
   -0.4330    0.7500    0.0000 C   0  0  0  0  0  0  0  0  0  0  0  0
   -0.4330   -0.7500    0.0000 O   0  0  0  0  0  0  0  0  0  0  0  0
  1  2  1  0
  2  3  1  0
  2  4  1  0
  2  5  1  0
  5  6  1  0
  5  7  1  0
  5  8  1  0
  8  9  1  0
  8 10  1  0
  8 11  1  0
 11 12  1  0
 11 13  1  0
 11 14  1  0
 14 15  1  0
 14 16  1  0
 14 17  1  0
 17 18  1  0
 17 19  1  0
 17 20  1  0
 20 21  1  0
 20 22  1  0
 20 23  1  0
 23 24  1  0
 23 25  1  0
 23 26  1  0
 26 27  1  0
 26 28  1  0
 26 29  1  0
 29 30  1  0
 29 31  1  0
 29 32  1  0
 32 33  1  0
 32 34  1  0
 32 35  1  0
 35 36  1  0
 35 37  1  0
 35 38  1  0
 38 39  1  0
 38 40  1  0
 38 41  1  0
 41 42  1  0
 41 43  1  0
 41 44  1  0
 44 45  1  0
 44 46  1  0
 44 47  1  0
 47 48  1  0
 47 49  1  0
 47 50  1  0
 50 51  1  0
 51 52  1  0
 52 53  1  0
 53 51  1  0
M  END
$$$$

     RDKit          2D

 36 36  0  0  0  0  0  0  0  0999 V2000
    6.0000    0.0000    0.0000 O   0  0  0  0  0  0  0  0  0  0  0  0
    5.2500   -1.2990    0.0000 C   0  0  0  0  0  0  0  0  0  0  0  0
    3.7500   -1.2990    0.0000 C   0  0  0  0  0  0  0  0  0  0  0  0
    3.0000    0.0000    0.0000 O   0  0  0  0  0  0  0  0  0  0  0  0
    1.5000    0.0000    0.0000 C   0  0  0  0  0  0  0  0  0  0  0  0
    0.7500   -1.2990    0.0000 C   0  0  0  0  0  0  0  0  0  0  0  0
   -0.7500   -1.2990    0.0000 C   0  0  0  0  0  0  0  0  0  0  0  0
   -1.5000    0.0000    0.0000 C   0  0  0  0  0  0  0  0  0  0  0  0
   -0.7500    1.2990    0.0000 C   0  0  0  0  0  0  0  0  0  0  0  0
    0.7500    1.2990    0.0000 C   0  0  0  0  0  0  0  0  0  0  0  0
    6.0000   -2.5981    0.0000 C   0  0  0  0  0  0  0  0  0  0  0  0
    7.5000   -2.5981    0.0000 C   0  0  0  0  0  0  0  0  0  0  0  0
    7.5000   -4.0981    0.0000 F   0  0  0  0  0  0  0  0  0  0  0  0
    7.5000   -1.0981    0.0000 F   0  0  0  0  0  0  0  0  0  0  0  0
    9.0000   -2.5981    0.0000 C   0  0  0  0  0  0  0  0  0  0  0  0
    9.0000   -1.0981    0.0000 F   0  0  0  0  0  0  0  0  0  0  0  0
    9.0000   -4.0981    0.0000 F   0  0  0  0  0  0  0  0  0  0  0  0
   10.5000   -2.5981    0.0000 C   0  0  0  0  0  0  0  0  0  0  0  0
   10.5000   -4.0981    0.0000 F   0  0  0  0  0  0  0  0  0  0  0  0
   10.5000   -1.0981    0.0000 F   0  0  0  0  0  0  0  0  0  0  0  0
   12.0000   -2.5981    0.0000 C   0  0  0  0  0  0  0  0  0  0  0  0
   12.0000   -1.0981    0.0000 F   0  0  0  0  0  0  0  0  0  0  0  0
   12.0000   -4.0981    0.0000 F   0  0  0  0  0  0  0  0  0  0  0  0
   13.5000   -2.5981    0.0000 C   0  0  0  0  0  0  0  0  0  0  0  0
   13.5000   -4.0981    0.0000 F   0  0  0  0  0  0  0  0  0  0  0  0
   13.5000   -1.0981    0.0000 F   0  0  0  0  0  0  0  0  0  0  0  0
   15.0000   -2.5981    0.0000 C   0  0  0  0  0  0  0  0  0  0  0  0
   15.0000   -1.0981    0.0000 F   0  0  0  0  0  0  0  0  0  0  0  0
   15.0000   -4.0981    0.0000 F   0  0  0  0  0  0  0  0  0  0  0  0
   16.5000   -2.5981    0.0000 C   0  0  0  0  0  0  0  0  0  0  0  0
   16.5000   -4.0981    0.0000 F   0  0  0  0  0  0  0  0  0  0  0  0
   16.5000   -1.0981    0.0000 F   0  0  0  0  0  0  0  0  0  0  0  0
   18.0000   -2.5981    0.0000 C   0  0  0  0  0  0  0  0  0  0  0  0
   19.5000   -2.5981    0.0000 F   0  0  0  0  0  0  0  0  0  0  0  0
   18.0000   -1.0981    0.0000 F   0  0  0  0  0  0  0  0  0  0  0  0
   18.0000   -4.0981    0.0000 F   0  0  0  0  0  0  0  0  0  0  0  0
  1  2  1  0
  2  3  1  0
  3  4  1  0
  4  5  1  0
  5  6  2  0
  6  7  1  0
  7  8  2  0
  8  9  1  0
  9 10  2  0
  2 11  1  0
 11 12  1  0
 12 13  1  0
 12 14  1  0
 12 15  1  0
 15 16  1  0
 15 17  1  0
 15 18  1  0
 18 19  1  0
 18 20  1  0
 18 21  1  0
 21 22  1  0
 21 23  1  0
 21 24  1  0
 24 25  1  0
 24 26  1  0
 24 27  1  0
 27 28  1  0
 27 29  1  0
 27 30  1  0
 30 31  1  0
 30 32  1  0
 30 33  1  0
 33 34  1  0
 33 35  1  0
 33 36  1  0
 10  5  1  0
M  END
$$$$

     RDKit          2D

 46 46  0  0  0  0  0  0  0  0999 V2000
    6.0000   -2.5981    0.0000 C   0  0  0  0  0  0  0  0  0  0  0  0
    5.2500   -1.2990    0.0000 C   0  0  0  0  0  0  0  0  0  0  0  0
    3.7500   -1.2990    0.0000 N   0  0  0  0  0  0  0  0  0  0  0  0
    3.0000    0.0000    0.0000 C   0  0  0  0  0  0  0  0  0  0  0  0
    1.5000    0.0000    0.0000 C   0  0  0  0  0  0  0  0  0  0  0  0
    0.7500   -1.2990    0.0000 O   0  0  0  0  0  0  0  0  0  0  0  0
   -0.7500   -1.2990    0.0000 Cr  0  0  0  0  0  6  0  0  0  0  0  0
   -0.9068   -2.7908    0.0000 O   0  0  0  0  0  0  0  0  0  0  0  0
   -2.2172   -0.9872    0.0000 Cl  0  0  0  0  0  0  0  0  0  0  0  0
    0.2537   -2.4138    0.0000 Cl  0  0  0  0  0  0  0  0  0  0  0  0
   -1.9635   -2.1807    0.0000 O   0  0  0  0  0  0  0  0  0  0  0  0
   -3.3338   -1.5706    0.0000 C   0  0  0  0  0  0  0  0  0  0  0  0
   -4.5474   -2.4523    0.0000 C   0  0  0  0  0  0  0  0  0  0  0  0
   -3.4906   -0.0788    0.0000 C   0  0  0  0  0  0  0  0  0  0  0  0
   -1.5000    0.0000    0.0000 O   0  0  0  0  0  0  0  0  0  0  0  0
   -0.7500    1.2990    0.0000 Cr  0  0  0  0  0  6  0  0  0  0  0  0
   -1.9635    2.1807    0.0000 O   0  0  0  0  0  0  0  0  0  0  0  0
    0.2537    2.4138    0.0000 Cl  0  0  0  0  0  0  0  0  0  0  0  0
   -2.2172    0.9872    0.0000 Cl  0  0  0  0  0  0  0  0  0  0  0  0
   -0.9068    2.7908    0.0000 O   0  0  0  0  0  0  0  0  0  0  0  0
    0.3067    3.6725    0.0000 C   0  0  0  0  0  0  0  0  0  0  0  0
    0.1499    5.1643    0.0000 C   0  0  0  0  0  0  0  0  0  0  0  0
    1.6771    3.0624    0.0000 C   0  0  0  0  0  0  0  0  0  0  0  0
    0.7500    1.2990    0.0000 O   0  0  0  0  0  0  0  0  0  0  0  0
    3.0000   -2.5981    0.0000 S   0  0  0  0  0  0  0  0  0  0  0  0
    1.7010   -1.8481    0.0000 O   0  0  0  0  0  0  0  0  0  0  0  0
    3.7338   -2.9095    0.0000 O   0  0  0  0  0  0  0  0  0  0  0  0
    2.2500   -3.8971    0.0000 C   0  0  0  0  0  0  0  0  0  0  0  0
    0.9510   -3.1471    0.0000 F   0  0  0  0  0  0  0  0  0  0  0  0
    1.5000   -5.1962    0.0000 F   0  0  0  0  0  0  0  0  0  0  0  0
    3.5490   -4.6471    0.0000 C   0  0  0  0  0  0  0  0  0  0  0  0
    2.7990   -5.9462    0.0000 F   0  0  0  0  0  0  0  0  0  0  0  0
    4.0821   -3.9397    0.0000 F   0  0  0  0  0  0  0  0  0  0  0  0
    4.8481   -5.3971    0.0000 C   0  0  0  0  0  0  0  0  0  0  0  0
    4.0981   -6.6962    0.0000 F   0  0  0  0  0  0  0  0  0  0  0  0
    5.5981   -4.0981    0.0000 F   0  0  0  0  0  0  0  0  0  0  0  0
    6.1471   -6.1471    0.0000 C   0  0  0  0  0  0  0  0  0  0  0  0
    6.8971   -4.8481    0.0000 F   0  0  0  0  0  0  0  0  0  0  0  0
    5.3971   -7.4462    0.0000 F   0  0  0  0  0  0  0  0  0  0  0  0
    7.4462   -6.8971    0.0000 C   0  0  0  0  0  0  0  0  0  0  0  0
    6.6962   -8.1962    0.0000 F   0  0  0  0  0  0  0  0  0  0  0  0
    8.1962   -5.5981    0.0000 F   0  0  0  0  0  0  0  0  0  0  0  0
    8.7452   -7.6471    0.0000 C   0  0  0  0  0  0  0  0  0  0  0  0
   10.0442   -8.3971    0.0000 F   0  0  0  0  0  0  0  0  0  0  0  0
    9.4952   -6.3481    0.0000 F   0  0  0  0  0  0  0  0  0  0  0  0
    7.9952   -8.9462    0.0000 F   0  0  0  0  0  0  0  0  0  0  0  0
  1  2  1  0
  2  3  1  0
  3  4  1  0
  4  5  1  0
  5  6  1  0
  6  7  1  0
  7  8  1  0
  7  9  1  0
  7 10  1  0
  7 11  1  0
 11 12  1  0
 12 13  1  0
 12 14  1  0
  7 15  1  0
 15 16  1  0
 16 17  1  0
 16 18  1  0
 16 19  1  0
 16 20  1  0
 20 21  1  0
 21 22  1  0
 21 23  1  0
 16 24  1  0
  3 25  1  0
 25 26  2  0
 25 27  2  0
 25 28  1  0
 28 29  1  0
 28 30  1  0
 28 31  1  0
 31 32  1  0
 31 33  1  0
 31 34  1  0
 34 35  1  0
 34 36  1  0
 34 37  1  0
 37 38  1  0
 37 39  1  0
 37 40  1  0
 40 41  1  0
 40 42  1  0
 40 43  1  0
 43 44  1  0
 43 45  1  0
 43 46  1  0
 24  5  1  0
M  END
$$$$

     RDKit          2D

 22 21  0  0  0  0  0  0  0  0999 V2000
    0.0000    0.0000    0.0000 C   0  0  0  0  0  0  0  0  0  0  0  0
    1.2990    0.7500    0.0000 C   0  0  0  0  0  0  0  0  0  0  0  0
    2.5981   -0.0000    0.0000 C   0  0  0  0  0  0  0  0  0  0  0  0
    3.8971    0.7500    0.0000 C   0  0  0  0  0  0  0  0  0  0  0  0
    5.1962    1.5000    0.0000 C   0  0  0  0  0  0  0  0  0  0  0  0
    6.5769    0.9139    0.0000 O   0  0  0  0  0  0  0  0  0  0  0  0
    5.1962    3.0000    0.0000 O   0  0  0  0  0  0  0  0  0  0  0  0
    6.4952    3.7500    0.0000 C   0  0  0  0  0  0  0  0  0  0  0  0
    3.1471    2.0490    0.0000 C   0  0  0  0  0  0  0  0  0  0  0  0
    2.3971    3.3481    0.0000 F   0  0  0  0  0  0  0  0  0  0  0  0
    4.2261    3.0911    0.0000 F   0  0  0  0  0  0  0  0  0  0  0  0
    1.7052    1.6357    0.0000 F   0  0  0  0  0  0  0  0  0  0  0  0
    4.6471   -0.5490    0.0000 C   0  0  0  0  0  0  0  0  0  0  0  0
    6.0279    0.0370    0.0000 F   0  0  0  0  0  0  0  0  0  0  0  0
    3.3481   -1.2990    0.0000 F   0  0  0  0  0  0  0  0  0  0  0  0
    5.3971   -1.8481    0.0000 C   0  0  0  0  0  0  0  0  0  0  0  0
    4.0981   -2.5981    0.0000 F   0  0  0  0  0  0  0  0  0  0  0  0
    6.6962   -1.0981    0.0000 F   0  0  0  0  0  0  0  0  0  0  0  0
    6.1471   -3.1471    0.0000 C   0  0  0  0  0  0  0  0  0  0  0  0
    6.8971   -4.4462    0.0000 F   0  0  0  0  0  0  0  0  0  0  0  0
    7.4462   -2.3971    0.0000 F   0  0  0  0  0  0  0  0  0  0  0  0
    4.8481   -3.8971    0.0000 F   0  0  0  0  0  0  0  0  0  0  0  0
  1  2  2  0
  2  3  1  0
  3  4  1  0
  4  5  1  0
  5  6  2  0
  5  7  1  0
  7  8  1  0
  4  9  1  0
  9 10  1  0
  9 11  1  0
  9 12  1  0
  4 13  1  0
 13 14  1  0
 13 15  1  0
 13 16  1  0
 16 17  1  0
 16 18  1  0
 16 19  1  0
 19 20  1  0
 19 21  1  0
 19 22  1  0
M  END
$$$$

     RDKit          2D

 15 14  0  0  0  0  0  0  0  0999 V2000
   -0.0000   -1.5000    0.0000 F   0  0  0  0  0  0  0  0  0  0  0  0
    0.0000    0.0000    0.0000 C   0  0  0  0  0  0  0  0  0  0  0  0
    1.2990    0.7500    0.0000 C   0  0  0  0  0  0  0  0  0  0  0  0
    1.2990    2.2500    0.0000 F   0  0  0  0  0  0  0  0  0  0  0  0
    2.5981   -0.0000    0.0000 C   0  0  0  0  0  0  0  0  0  0  0  0
    3.8971   -0.7500    0.0000 F   0  0  0  0  0  0  0  0  0  0  0  0
    3.3481    1.2990    0.0000 F   0  0  0  0  0  0  0  0  0  0  0  0
    1.8481   -1.2990    0.0000 F   0  0  0  0  0  0  0  0  0  0  0  0
   -1.2990    0.7500    0.0000 C   0  0  0  0  0  0  0  0  0  0  0  0
   -2.0490   -0.5490    0.0000 F   0  0  0  0  0  0  0  0  0  0  0  0
   -0.5490    2.0490    0.0000 F   0  0  0  0  0  0  0  0  0  0  0  0
   -2.5981    1.5000    0.0000 C   0  0  0  0  0  0  0  0  0  0  0  0
   -3.8971    2.2500    0.0000 F   0  0  0  0  0  0  0  0  0  0  0  0
   -1.8481    2.7990    0.0000 F   0  0  0  0  0  0  0  0  0  0  0  0
   -3.3481    0.2010    0.0000 F   0  0  0  0  0  0  0  0  0  0  0  0
  2  1  1  1
  2  3  1  0
  3  4  1  6
  3  5  1  0
  5  6  1  0
  5  7  1  0
  5  8  1  0
  2  9  1  0
  9 10  1  0
  9 11  1  0
  9 12  1  0
 12 13  1  0
 12 14  1  0
 12 15  1  0
M  END
$$$$

     RDKit          2D

 54 53  0  0  0  0  0  0  0  0999 V2000
   -1.5000    0.0000    0.0000 F   0  0  0  0  0  0  0  0  0  0  0  0
    0.0000    0.0000    0.0000 C   0  0  0  0  0  0  0  0  0  0  0  0
    0.0000    1.5000    0.0000 F   0  0  0  0  0  0  0  0  0  0  0  0
    0.0000   -1.5000    0.0000 F   0  0  0  0  0  0  0  0  0  0  0  0
    1.5000    0.0000    0.0000 C   0  0  0  0  0  0  0  0  0  0  0  0
    1.5000    1.5000    0.0000 F   0  0  0  0  0  0  0  0  0  0  0  0
    1.5000   -1.5000    0.0000 F   0  0  0  0  0  0  0  0  0  0  0  0
    3.0000    0.0000    0.0000 C   0  0  0  0  0  0  0  0  0  0  0  0
    3.0000    1.5000    0.0000 F   0  0  0  0  0  0  0  0  0  0  0  0
    3.0000   -1.5000    0.0000 F   0  0  0  0  0  0  0  0  0  0  0  0
    4.5000    0.0000    0.0000 O   0  0  0  0  0  0  0  0  0  0  0  0
    5.2500   -1.2990    0.0000 C   0  0  0  0  0  0  0  0  0  0  0  0
    3.9510   -2.0490    0.0000 F   0  0  0  0  0  0  0  0  0  0  0  0
    5.7516   -0.6795    0.0000 F   0  0  0  0  0  0  0  0  0  0  0  0
    6.0000   -2.5981    0.0000 C   0  0  0  0  0  0  0  0  0  0  0  0
    4.7010   -3.3481    0.0000 F   0  0  0  0  0  0  0  0  0  0  0  0
    7.2990   -1.8481    0.0000 O   0  0  0  0  0  0  0  0  0  0  0  0
    7.2990   -0.3481    0.0000 C   0  0  0  0  0  0  0  0  0  0  0  0
    6.5078   -0.2509    0.0000 F   0  0  0  0  0  0  0  0  0  0  0  0
    8.7990   -0.3481    0.0000 F   0  0  0  0  0  0  0  0  0  0  0  0
    7.2990    1.1519    0.0000 C   0  0  0  0  0  0  0  0  0  0  0  0
    8.7990    1.1519    0.0000 F   0  0  0  0  0  0  0  0  0  0  0  0
    5.7990    1.1519    0.0000 F   0  0  0  0  0  0  0  0  0  0  0  0
    7.2990    2.6519    0.0000 C   0  0  0  0  0  0  0  0  0  0  0  0
    7.2990    4.1519    0.0000 F   0  0  0  0  0  0  0  0  0  0  0  0
    8.7990    2.6519    0.0000 F   0  0  0  0  0  0  0  0  0  0  0  0
    5.7990    2.6519    0.0000 F   0  0  0  0  0  0  0  0  0  0  0  0
    6.7500   -3.8971    0.0000 C   0  0  0  0  0  0  0  0  0  0  0  0
    8.0490   -3.1471    0.0000 F   0  0  0  0  0  0  0  0  0  0  0  0
    5.4510   -4.6471    0.0000 O   0  0  0  0  0  0  0  0  0  0  0  0
    5.4510   -6.1471    0.0000 C   0  0  0  0  0  0  0  0  0  0  0  0
    6.9398   -6.3300    0.0000 F   0  0  0  0  0  0  0  0  0  0  0  0
    3.9510   -6.1471    0.0000 F   0  0  0  0  0  0  0  0  0  0  0  0
    5.4510   -7.6471    0.0000 C   0  0  0  0  0  0  0  0  0  0  0  0
    6.9510   -7.6471    0.0000 F   0  0  0  0  0  0  0  0  0  0  0  0
    3.9510   -7.6471    0.0000 F   0  0  0  0  0  0  0  0  0  0  0  0
    5.4510   -9.1471    0.0000 C   0  0  0  0  0  0  0  0  0  0  0  0
    5.4510  -10.6471    0.0000 F   0  0  0  0  0  0  0  0  0  0  0  0
    6.9510   -9.1471    0.0000 F   0  0  0  0  0  0  0  0  0  0  0  0
    3.9510   -9.1471    0.0000 F   0  0  0  0  0  0  0  0  0  0  0  0
    7.5000   -5.1962    0.0000 C   0  0  0  0  0  0  0  0  0  0  0  0
    8.7990   -4.4462    0.0000 F   0  0  0  0  0  0  0  0  0  0  0  0
    6.5561   -6.3619    0.0000 F   0  0  0  0  0  0  0  0  0  0  0  0
    8.2500   -6.4952    0.0000 O   0  0  0  0  0  0  0  0  0  0  0  0
    9.7500   -6.4952    0.0000 C   0  0  0  0  0  0  0  0  0  0  0  0
    9.7500   -4.9952    0.0000 F   0  0  0  0  0  0  0  0  0  0  0  0
    9.7500   -7.9952    0.0000 F   0  0  0  0  0  0  0  0  0  0  0  0
   11.2500   -6.4952    0.0000 C   0  0  0  0  0  0  0  0  0  0  0  0
   11.2500   -4.9952    0.0000 F   0  0  0  0  0  0  0  0  0  0  0  0
   11.2500   -7.9952    0.0000 F   0  0  0  0  0  0  0  0  0  0  0  0
   12.7500   -6.4952    0.0000 C   0  0  0  0  0  0  0  0  0  0  0  0
   14.2500   -6.4952    0.0000 F   0  0  0  0  0  0  0  0  0  0  0  0
   12.7500   -7.9952    0.0000 F   0  0  0  0  0  0  0  0  0  0  0  0
   12.7500   -4.9952    0.0000 F   0  0  0  0  0  0  0  0  0  0  0  0
  1  2  1  0
  2  3  1  0
  2  4  1  0
  2  5  1  0
  5  6  1  0
  5  7  1  0
  5  8  1  0
  8  9  1  0
  8 10  1  0
  8 11  1  0
 11 12  1  0
 12 13  1  0
 12 14  1  0
 12 15  1  0
 15 16  1  1
 15 17  1  0
 17 18  1  0
 18 19  1  0
 18 20  1  0
 18 21  1  0
 21 22  1  0
 21 23  1  0
 21 24  1  0
 24 25  1  0
 24 26  1  0
 24 27  1  0
 15 28  1  0
 28 29  1  6
 28 30  1  0
 30 31  1  0
 31 32  1  0
 31 33  1  0
 31 34  1  0
 34 35  1  0
 34 36  1  0
 34 37  1  0
 37 38  1  0
 37 39  1  0
 37 40  1  0
 28 41  1  0
 41 42  1  0
 41 43  1  0
 41 44  1  0
 44 45  1  0
 45 46  1  0
 45 47  1  0
 45 48  1  0
 48 49  1  0
 48 50  1  0
 48 51  1  0
 51 52  1  0
 51 53  1  0
 51 54  1  0
M  END
$$$$

     RDKit          2D

 41 40  0  0  0  0  0  0  0  0999 V2000
    0.0000    0.0000    0.0000 C   0  0  0  0  0  0  0  0  0  0  0  0
    1.2990    0.7500    0.0000 C   0  0  0  0  0  0  0  0  0  0  0  0
    2.5981   -0.0000    0.0000 C   0  0  0  0  0  0  0  0  0  0  0  0
    3.8971    0.7500    0.0000 C   0  0  0  0  0  0  0  0  0  0  0  0
    5.1962   -0.0000    0.0000 C   0  0  0  0  0  0  0  0  0  0  0  0
    6.4952    0.7500    0.0000 C   0  0  0  0  0  0  0  0  0  0  0  0
    7.7942   -0.0000    0.0000 C   0  0  0  0  0  0  0  0  0  0  0  0
    9.0933    0.7500    0.0000 C   0  0  0  0  0  0  0  0  0  0  0  0
   10.3923   -0.0000    0.0000 C   0  0  0  0  0  0  0  0  0  0  0  0
   11.6913    0.7500    0.0000 C   0  0  0  0  0  0  0  0  0  0  0  0
   12.9904   -0.0000    0.0000 C   0  0  0  0  0  0  0  0  0  0  0  0
   14.2894    0.7500    0.0000 C   0  0  0  0  0  0  0  0  0  0  0  0
   15.5885   -0.0000    0.0000 C   0  0  0  0  0  0  0  0  0  0  0  0
   16.8875    0.7500    0.0000 C   0  0  0  0  0  0  0  0  0  0  0  0
   18.1865   -0.0000    0.0000 C   0  0  0  0  0  0  0  0  0  0  0  0
   19.4856    0.7500    0.0000 C   0  0  0  0  0  0  0  0  0  0  0  0
   20.7846   -0.0000    0.0000 C   0  0  0  0  0  0  0  0  0  0  0  0
   22.0836    0.7500    0.0000 C   0  0  0  0  0  0  0  0  0  0  0  0
   23.3827   -0.0000    0.0000 C   0  0  0  0  0  0  0  0  0  0  0  0
   24.6817    0.7500    0.0000 C   0  0  0  0  0  0  0  0  0  0  0  0
   25.4317   -0.5490    0.0000 F   0  0  0  0  0  0  0  0  0  0  0  0
   23.9317    2.0490    0.0000 F   0  0  0  0  0  0  0  0  0  0  0  0
   25.9808    1.5000    0.0000 C   0  0  0  0  0  0  0  0  0  0  0  0
   25.2308    2.7990    0.0000 F   0  0  0  0  0  0  0  0  0  0  0  0
   26.7308    0.2010    0.0000 F   0  0  0  0  0  0  0  0  0  0  0  0
   27.2798    2.2500    0.0000 C   0  0  0  0  0  0  0  0  0  0  0  0
   28.0298    0.9510    0.0000 F   0  0  0  0  0  0  0  0  0  0  0  0
   26.5298    3.5490    0.0000 F   0  0  0  0  0  0  0  0  0  0  0  0
   28.5788    3.0000    0.0000 C   0  0  0  0  0  0  0  0  0  0  0  0
   27.8288    4.2990    0.0000 F   0  0  0  0  0  0  0  0  0  0  0  0
   29.3288    1.7010    0.0000 F   0  0  0  0  0  0  0  0  0  0  0  0
   29.8779    3.7500    0.0000 C   0  0  0  0  0  0  0  0  0  0  0  0
   30.6279    2.4510    0.0000 F   0  0  0  0  0  0  0  0  0  0  0  0
   29.1279    5.0490    0.0000 F   0  0  0  0  0  0  0  0  0  0  0  0
   31.1769    4.5000    0.0000 C   0  0  0  0  0  0  0  0  0  0  0  0
   30.4269    5.7990    0.0000 F   0  0  0  0  0  0  0  0  0  0  0  0
   31.9269    3.2010    0.0000 F   0  0  0  0  0  0  0  0  0  0  0  0
   32.4760    5.2500    0.0000 C   0  0  0  0  0  0  0  0  0  0  0  0
   33.7750    6.0000    0.0000 F   0  0  0  0  0  0  0  0  0  0  0  0
   33.2260    3.9510    0.0000 F   0  0  0  0  0  0  0  0  0  0  0  0
   31.7260    6.5490    0.0000 F   0  0  0  0  0  0  0  0  0  0  0  0
  1  2  1  0
  2  3  1  0
  3  4  1  0
  4  5  1  0
  5  6  1  0
  6  7  1  0
  7  8  1  0
  8  9  1  0
  9 10  1  0
 10 11  1  0
 11 12  1  0
 12 13  1  0
 13 14  1  0
 14 15  1  0
 15 16  1  0
 16 17  1  0
 17 18  1  0
 18 19  1  0
 19 20  1  0
 20 21  1  0
 20 22  1  0
 20 23  1  0
 23 24  1  0
 23 25  1  0
 23 26  1  0
 26 27  1  0
 26 28  1  0
 26 29  1  0
 29 30  1  0
 29 31  1  0
 29 32  1  0
 32 33  1  0
 32 34  1  0
 32 35  1  0
 35 36  1  0
 35 37  1  0
 35 38  1  0
 38 39  1  0
 38 40  1  0
 38 41  1  0
M  END
$$$$

     RDKit          2D

 85 91  0  0  0  0  0  0  0  0999 V2000
   -6.6286   -9.0170    0.0000 C   0  0  0  0  0  0  0  0  0  0  0  0
   -5.2020   -8.5535    0.0000 C   0  0  0  0  0  0  0  0  0  0  0  0
   -4.0873   -9.5572    0.0000 O   0  0  0  0  0  0  0  0  0  0  0  0
   -4.8901   -7.0863    0.0000 O   0  0  0  0  0  0  0  0  0  0  0  0
   -3.4635   -6.6227    0.0000 C   0  0  0  0  0  0  0  0  0  0  0  0
   -2.2500   -7.5044    0.0000 C   0  0  0  0  0  0  0  0  0  0  0  0
   -1.0365   -6.6227    0.0000 C   0  0  0  0  0  0  0  0  0  0  0  0
   -1.5000   -5.1962    0.0000 C   0  0  0  0  0  0  0  0  0  0  0  0
   -0.7500   -3.8971    0.0000 C   0  0  0  0  0  0  0  0  0  0  0  0
    0.7500   -3.8971    0.0000 C   0  0  0  0  0  0  0  0  0  0  0  0
    1.5000   -5.1962    0.0000 C   0  0  0  0  0  0  0  0  0  0  0  0
    3.0000   -5.1962    0.0000 C   0  0  0  0  0  0  0  0  0  0  0  0
    3.7500   -6.4952    0.0000 C   0  0  0  0  0  0  0  0  0  0  0  0
    5.2500   -6.4952    0.0000 C   0  0  0  0  0  0  0  0  0  0  0  0
    6.0000   -7.7942    0.0000 C   0  0  0  0  0  0  0  0  0  0  0  0
    7.5000   -7.7942    0.0000 C   0  0  0  0  0  0  0  0  0  0  0  0
    8.2500   -9.0933    0.0000 C   0  0  0  0  0  0  0  0  0  0  0  0
    9.7500   -9.0933    0.0000 C   0  0  0  0  0  0  0  0  0  0  0  0
   10.5000  -10.3923    0.0000 C   0  0  0  0  0  0  0  0  0  0  0  0
   12.0000  -10.3923    0.0000 S   0  0  0  0  0  0  0  0  0  0  0  0
   12.7500  -11.6913    0.0000 C   0  0  0  0  0  0  0  0  0  0  0  0
   14.2500  -11.6913    0.0000 C   0  0  0  0  0  0  0  0  0  0  0  0
   15.0000  -12.9904    0.0000 C   0  0  0  0  0  0  0  0  0  0  0  0
   16.5000  -12.9904    0.0000 C   0  0  0  0  0  0  0  0  0  0  0  0
   16.5000  -14.4904    0.0000 F   0  0  0  0  0  0  0  0  0  0  0  0
   16.5000  -11.4904    0.0000 F   0  0  0  0  0  0  0  0  0  0  0  0
   18.0000  -12.9904    0.0000 C   0  0  0  0  0  0  0  0  0  0  0  0
   19.5000  -12.9904    0.0000 F   0  0  0  0  0  0  0  0  0  0  0  0
   18.0000  -11.4904    0.0000 F   0  0  0  0  0  0  0  0  0  0  0  0
   18.0000  -14.4904    0.0000 F   0  0  0  0  0  0  0  0  0  0  0  0
    1.5000   -2.5981    0.0000 C   0  0  0  0  0  0  0  0  0  0  0  0
    0.7500   -1.2990    0.0000 C   0  0  0  0  0  0  0  0  0  0  0  0
    1.5000    0.0000    0.0000 C   0  0  0  0  0  0  0  0  0  0  0  0
    0.7500    1.2990    0.0000 C   0  0  0  0  0  0  0  0  0  0  0  0
    1.5000    2.5981    0.0000 O   0  0  0  0  0  0  0  0  0  0  0  0
   -0.7500    1.2990    0.0000 C   0  0  0  0  0  0  0  0  0  0  0  0
   -1.5000    0.0000    0.0000 C   0  0  0  0  0  0  0  0  0  0  0  0
   -0.7500   -1.2990    0.0000 C   0  0  0  0  0  0  0  0  0  0  0  0
   -1.5000   -2.5981    0.0000 C   0  0  0  0  0  0  0  0  0  0  0  0
   -3.0000   -2.5981    0.0000 C   0  0  0  0  0  0  0  0  0  0  0  0
   -3.7500   -3.8971    0.0000 C   0  0  0  0  0  0  0  0  0  0  0  0
   -3.0000   -5.1962    0.0000 C   0  0  0  0  0  0  0  0  0  0  0  0
   -4.4918   -5.3529    0.0000 C   0  0  0  0  0  0  0  0  0  0  0  0
    3.7500    3.5981    0.0000 C   0  0  0  0  0  0  0  0  0  0  0  0
    3.0000    4.8971    0.0000 O   0  0  0  0  0  0  0  0  0  0  0  0
    1.5000    4.8971    0.0000 C   0  0  0  0  0  0  0  0  0  0  0  0
    0.7500    3.5981    0.0000 C   0  0  0  0  0  0  0  0  0  0  0  0
   -0.7500    3.5981    0.0000 C   0  0  0  0  0  0  0  0  0  0  0  0
   -1.5000    4.8971    0.0000 C   0  0  0  0  0  0  0  0  0  0  0  0
   -0.7500    6.1962    0.0000 C   0  0  0  0  0  0  0  0  0  0  0  0
    0.7500    6.1962    0.0000 C   0  0  0  0  0  0  0  0  0  0  0  0
   -1.5000    7.4952    0.0000 C   0  0  0  0  0  0  0  0  0  0  0  0
   -3.0000    7.4952    0.0000 C   0  0  0  0  0  0  0  0  0  0  0  0
   -3.7500    8.7942    0.0000 C   0  0  0  0  0  0  0  0  0  0  0  0
   -3.0000   10.0933    0.0000 C   0  0  0  0  0  0  0  0  0  0  0  0
   -3.7500   11.3923    0.0000 C   0  0  0  0  0  0  0  0  0  0  0  0
   -3.0000   12.6913    0.0000 C   0  0  0  0  0  0  0  0  0  0  0  0
   -3.7500   13.9904    0.0000 C   0  0  0  0  0  0  0  0  0  0  0  0
   -3.0000   15.2894    0.0000 C   0  0  0  0  0  0  0  0  0  0  0  0
   -3.7500   16.5885    0.0000 C   0  0  0  0  0  0  0  0  0  0  0  0
   -3.0000   17.8875    0.0000 C   0  0  0  0  0  0  0  0  0  0  0  0
   -3.7500   19.1865    0.0000 C   0  0  0  0  0  0  0  0  0  0  0  0
   -3.0000   20.4856    0.0000 S   0  0  0  0  0  0  0  0  0  0  0  0
   -1.5000   20.4856    0.0000 O   0  0  0  0  0  0  0  0  0  0  0  0
   -3.7500   21.7846    0.0000 C   0  0  0  0  0  0  0  0  0  0  0  0
   -3.0000   23.0836    0.0000 C   0  0  0  0  0  0  0  0  0  0  0  0
   -3.7500   24.3827    0.0000 C   0  0  0  0  0  0  0  0  0  0  0  0
   -3.0000   25.6817    0.0000 C   0  0  0  0  0  0  0  0  0  0  0  0
   -4.2990   26.4317    0.0000 F   0  0  0  0  0  0  0  0  0  0  0  0
   -1.7010   24.9317    0.0000 F   0  0  0  0  0  0  0  0  0  0  0  0
   -2.2500   26.9808    0.0000 C   0  0  0  0  0  0  0  0  0  0  0  0
   -1.5000   28.2798    0.0000 F   0  0  0  0  0  0  0  0  0  0  0  0
   -0.9510   26.2308    0.0000 F   0  0  0  0  0  0  0  0  0  0  0  0
   -3.5490   27.7308    0.0000 F   0  0  0  0  0  0  0  0  0  0  0  0
   -3.7500    6.1962    0.0000 C   0  0  0  0  0  0  0  0  0  0  0  0
   -3.0000    4.8971    0.0000 C   0  0  0  0  0  0  0  0  0  0  0  0
   -3.7500    3.5981    0.0000 C   0  0  0  0  0  0  0  0  0  0  0  0
   -5.2500    3.5981    0.0000 C   0  0  0  0  0  0  0  0  0  0  0  0
   -6.0000    4.8971    0.0000 C   0  0  0  0  0  0  0  0  0  0  0  0
   -6.8817    3.6836    0.0000 C   0  0  0  0  0  0  0  0  0  0  0  0
   -7.4672    5.2090    0.0000 C   0  0  0  0  0  0  0  0  0  0  0  0
   -8.5819    4.2053    0.0000 O   0  0  0  0  0  0  0  0  0  0  0  0
   -7.6240    6.7008    0.0000 C   0  0  0  0  0  0  0  0  0  0  0  0
   -6.2537    7.3109    0.0000 C   0  0  0  0  0  0  0  0  0  0  0  0
   -5.2500    6.1962    0.0000 C   0  0  0  0  0  0  0  0  0  0  0  0
  1  2  1  0
  2  3  2  0
  2  4  1  0
  5  4  1  6
  5  6  1  0
  6  7  1  0
  8  7  1  6
  8  9  1  0
  9 10  1  1
 10 11  1  1
 11 12  1  0
 12 13  1  0
 13 14  1  0
 14 15  1  0
 15 16  1  0
 16 17  1  0
 17 18  1  0
 18 19  1  0
 19 20  1  0
 20 21  1  0
 21 22  1  0
 22 23  1  0
 23 24  1  0
 24 25  1  0
 24 26  1  0
 24 27  1  0
 27 28  1  0
 27 29  1  0
 27 30  1  0
 10 31  1  0
 31 32  1  0
 32 33  2  0
 33 34  1  0
 34 35  2  0
 34 36  1  0
 36 37  1  0
 38 37  1  1
 38 39  1  0
 39 40  1  6
 40 41  1  0
 41 42  1  0
 42 43  1  6
 44 45  1  0
 45 46  1  0
 46 47  2  0
 47 48  1  0
 48 49  2  0
 49 50  1  0
 50 51  2  0
 50 52  1  0
 52 53  1  0
 53 54  1  6
 54 55  1  0
 55 56  1  0
 56 57  1  0
 57 58  1  0
 58 59  1  0
 59 60  1  0
 60 61  1  0
 61 62  1  0
 62 63  1  0
 63 64  2  0
 63 65  1  0
 65 66  1  0
 66 67  1  0
 67 68  1  0
 68 69  1  0
 68 70  1  0
 68 71  1  0
 71 72  1  0
 71 73  1  0
 71 74  1  0
 75 53  1  6
 75 76  1  0
 76 77  1  1
 77 78  1  0
 78 79  1  0
 79 80  1  1
 79 81  1  0
 81 82  1  1
 81 83  1  0
 83 84  1  0
 85 84  1  1
 42  5  1  0
 51 46  1  0
 85 75  1  0
 42  8  1  0
 76 49  1  0
 85 79  1  0
 39  9  1  0
 38 32  1  0
M  END
$$$$

     RDKit          2D

 44 46  0  0  0  0  0  0  0  0999 V2000
    2.0981    2.2500    0.0000 C   0  0  0  0  0  0  0  0  0  0  0  0
    2.0981    0.7500    0.0000 N   0  0  0  0  0  0  0  0  0  0  0  0
    3.3971   -0.0000    0.0000 S   0  0  0  0  0  0  0  0  0  0  0  0
    4.1471    1.2990    0.0000 O   0  0  0  0  0  0  0  0  0  0  0  0
    2.9174   -0.6366    0.0000 O   0  0  0  0  0  0  0  0  0  0  0  0
    4.6962   -0.7500    0.0000 C   0  0  0  0  0  0  0  0  0  0  0  0
    5.4462    0.5490    0.0000 F   0  0  0  0  0  0  0  0  0  0  0  0
    5.9952   -1.5000    0.0000 F   0  0  0  0  0  0  0  0  0  0  0  0
    3.9462   -2.0490    0.0000 C   0  0  0  0  0  0  0  0  0  0  0  0
    3.1308   -1.7030    0.0000 F   0  0  0  0  0  0  0  0  0  0  0  0
    5.2452   -2.7990    0.0000 F   0  0  0  0  0  0  0  0  0  0  0  0
    3.1962   -3.3481    0.0000 C   0  0  0  0  0  0  0  0  0  0  0  0
    1.8971   -2.5981    0.0000 F   0  0  0  0  0  0  0  0  0  0  0  0
    4.4952   -4.0981    0.0000 F   0  0  0  0  0  0  0  0  0  0  0  0
    2.4462   -4.6471    0.0000 C   0  0  0  0  0  0  0  0  0  0  0  0
    1.6962   -5.9462    0.0000 F   0  0  0  0  0  0  0  0  0  0  0  0
    3.7452   -5.3971    0.0000 F   0  0  0  0  0  0  0  0  0  0  0  0
    1.1471   -3.8971    0.0000 F   0  0  0  0  0  0  0  0  0  0  0  0
   -5.2500   -3.8971    0.0000 C   0  0  0  0  0  0  0  0  0  0  0  0
   -3.7500   -3.8971    0.0000 C   0  0  0  0  0  0  0  0  0  0  0  0
   -3.0000   -2.5981    0.0000 C   0  0  0  0  0  0  0  0  0  0  0  0
   -3.7500   -1.2990    0.0000 C   0  0  0  0  0  0  0  0  0  0  0  0
   -3.0000    0.0000    0.0000 C   0  0  0  0  0  0  0  0  0  0  0  0
   -3.7500    1.2990    0.0000 P   0  0  0  0  0  0  0  0  0  0  0  0
   -4.5000    2.5981    0.0000 C   0  0  0  0  0  0  0  0  0  0  0  0
   -3.7500    3.8971    0.0000 C   0  0  0  0  0  0  0  0  0  0  0  0
   -4.5000    5.1962    0.0000 C   0  0  0  0  0  0  0  0  0  0  0  0
   -6.0000    5.1962    0.0000 C   0  0  0  0  0  0  0  0  0  0  0  0
   -6.7500    3.8971    0.0000 C   0  0  0  0  0  0  0  0  0  0  0  0
   -6.0000    2.5981    0.0000 C   0  0  0  0  0  0  0  0  0  0  0  0
   -5.0490    0.5490    0.0000 C   0  0  0  0  0  0  0  0  0  0  0  0
   -6.3481    1.2990    0.0000 C   0  0  0  0  0  0  0  0  0  0  0  0
   -7.6471    0.5490    0.0000 C   0  0  0  0  0  0  0  0  0  0  0  0
   -7.6471   -0.9510    0.0000 C   0  0  0  0  0  0  0  0  0  0  0  0
   -6.3481   -1.7010    0.0000 C   0  0  0  0  0  0  0  0  0  0  0  0
   -5.0490   -0.9510    0.0000 C   0  0  0  0  0  0  0  0  0  0  0  0
   -2.4510    2.0490    0.0000 C   0  0  0  0  0  0  0  0  0  0  0  0
   -1.1519    1.2990    0.0000 C   0  0  0  0  0  0  0  0  0  0  0  0
    0.1471    2.0490    0.0000 C   0  0  0  0  0  0  0  0  0  0  0  0
    0.1471    3.5490    0.0000 C   0  0  0  0  0  0  0  0  0  0  0  0
   -1.1519    4.2990    0.0000 C   0  0  0  0  0  0  0  0  0  0  0  0
   -2.4510    3.5490    0.0000 C   0  0  0  0  0  0  0  0  0  0  0  0
   -5.2500   -1.2990    0.0000 C   0  0  0  0  0  0  0  0  0  0  0  0
   -6.0000   -2.5981    0.0000 C   0  0  0  0  0  0  0  0  0  0  0  0
  1  2  1  0
  2  3  1  0
  3  4  2  0
  3  5  2  0
  3  6  1  0
  6  7  1  0
  6  8  1  0
  6  9  1  0
  9 10  1  0
  9 11  1  0
  9 12  1  0
 12 13  1  0
 12 14  1  0
 12 15  1  0
 15 16  1  0
 15 17  1  0
 15 18  1  0
 19 20  2  0
 20 21  1  0
 21 22  2  0
 22 23  1  0
 23 24  1  0
 24 25  1  0
 25 26  2  0
 26 27  1  0
 27 28  2  0
 28 29  1  0
 29 30  2  0
 24 31  1  0
 31 32  2  0
 32 33  1  0
 33 34  2  0
 34 35  1  0
 35 36  2  0
 24 37  1  0
 37 38  2  0
 38 39  1  0
 39 40  2  0
 40 41  1  0
 41 42  2  0
 22 43  1  0
 43 44  2  0
 44 19  1  0
 30 25  1  0
 36 31  1  0
 42 37  1  0
M  CHG  2   2  -1  24   1
M  END
$$$$

     RDKit          2D

 39 40  0  0  0  0  0  0  0  0999 V2000
    3.0000    0.0000    0.0000 C   0  0  0  0  0  0  0  0  0  0  0  0
    1.5000    0.0000    0.0000 C   0  0  0  0  0  0  0  0  0  0  0  0
    0.7500   -1.2990    0.0000 C   0  0  0  0  0  0  0  0  0  0  0  0
   -0.7500   -1.2990    0.0000 C   0  0  0  0  0  0  0  0  0  0  0  0
   -1.5000    0.0000    0.0000 C   0  0  0  0  0  0  0  0  0  0  0  0
   -3.0000    0.0000    0.0000 S   0  0  0  0  0  0  0  0  0  0  0  0
   -3.7500    1.2990    0.0000 C   0  0  0  0  0  0  0  0  0  0  0  0
   -3.0000    2.5981    0.0000 C   0  0  0  0  0  0  0  0  0  0  0  0
   -3.7500    3.8971    0.0000 C   0  0  0  0  0  0  0  0  0  0  0  0
   -5.2500    3.8971    0.0000 C   0  0  0  0  0  0  0  0  0  0  0  0
   -6.0000    5.1962    0.0000 C   0  0  0  0  0  0  0  0  0  0  0  0
   -6.0000    2.5981    0.0000 C   0  0  0  0  0  0  0  0  0  0  0  0
   -5.2500    1.2990    0.0000 C   0  0  0  0  0  0  0  0  0  0  0  0
   -3.7500   -1.2990    0.0000 C   0  0  0  0  0  0  0  0  0  0  0  0
   -5.2500   -1.2990    0.0000 C   0  0  0  0  0  0  0  0  0  0  0  0
   -6.0000   -2.5981    0.0000 C   0  0  0  0  0  0  0  0  0  0  0  0
   -5.2500   -3.8971    0.0000 C   0  0  0  0  0  0  0  0  0  0  0  0
   -6.0000   -5.1962    0.0000 C   0  0  0  0  0  0  0  0  0  0  0  0
   -3.7500   -3.8971    0.0000 C   0  0  0  0  0  0  0  0  0  0  0  0
   -3.0000   -2.5981    0.0000 C   0  0  0  0  0  0  0  0  0  0  0  0
   -0.7500    1.2990    0.0000 C   0  0  0  0  0  0  0  0  0  0  0  0
    0.7500    1.2990    0.0000 C   0  0  0  0  0  0  0  0  0  0  0  0
    4.0000   -1.5000    0.0000 O   0  0  0  0  0  0  0  0  0  0  0  0
    5.5000   -1.5000    0.0000 S   0  0  0  0  0  0  0  0  0  0  0  0
    6.2912   -1.5972    0.0000 O   0  0  0  0  0  0  0  0  0  0  0  0
    5.5000   -3.0000    0.0000 O   0  0  0  0  0  0  0  0  0  0  0  0
    5.5000    0.0000    0.0000 C   0  0  0  0  0  0  0  0  0  0  0  0
    4.0000    0.0000    0.0000 F   0  0  0  0  0  0  0  0  0  0  0  0
    5.5000    1.5000    0.0000 F   0  0  0  0  0  0  0  0  0  0  0  0
    7.0000    0.0000    0.0000 C   0  0  0  0  0  0  0  0  0  0  0  0
    7.0000    1.5000    0.0000 F   0  0  0  0  0  0  0  0  0  0  0  0
    7.1080   -0.8791    0.0000 F   0  0  0  0  0  0  0  0  0  0  0  0
    8.5000    0.0000    0.0000 C   0  0  0  0  0  0  0  0  0  0  0  0
    8.5000    1.5000    0.0000 F   0  0  0  0  0  0  0  0  0  0  0  0
    8.5000   -1.5000    0.0000 F   0  0  0  0  0  0  0  0  0  0  0  0
   10.0000    0.0000    0.0000 C   0  0  0  0  0  0  0  0  0  0  0  0
   11.5000    0.0000    0.0000 F   0  0  0  0  0  0  0  0  0  0  0  0
   10.0000   -1.5000    0.0000 F   0  0  0  0  0  0  0  0  0  0  0  0
   10.0000    1.5000    0.0000 F   0  0  0  0  0  0  0  0  0  0  0  0
  1  2  1  0
  2  3  2  0
  3  4  1  0
  4  5  2  0
  5  6  1  0
  6  7  1  0
  7  8  2  0
  8  9  1  0
  9 10  2  0
 10 11  1  0
 10 12  1  0
 12 13  2  0
  6 14  1  0
 14 15  2  0
 15 16  1  0
 16 17  2  0
 17 18  1  0
 17 19  1  0
 19 20  2  0
  5 21  1  0
 21 22  2  0
 23 24  2  0
 24 25  2  0
 24 26  1  0
 24 27  1  0
 27 28  1  0
 27 29  1  0
 27 30  1  0
 30 31  1  0
 30 32  1  0
 30 33  1  0
 33 34  1  0
 33 35  1  0
 33 36  1  0
 36 37  1  0
 36 38  1  0
 36 39  1  0
 22  2  1  0
 13  7  1  0
 20 14  1  0
M  CHG  2   6   1  26  -1
M  END
$$$$

     RDKit          2D

 18 18  0  0  0  0  0  0  0  0999 V2000
    2.7648    0.1828    0.0000 O   0  0  0  0  0  0  0  0  0  0  0  0
    1.2760    0.0000    0.0000 C   0  0  0  0  0  0  0  0  0  0  0  0
    0.3943    1.2135    0.0000 O   0  0  0  0  0  0  0  0  0  0  0  0
   -1.0323    0.7500    0.0000 C   0  0  0  0  0  0  0  0  0  0  0  0
   -2.5241    0.5932    0.0000 C   0  0  0  0  0  0  0  0  0  0  0  0
   -3.1342   -0.7771    0.0000 O   0  0  0  0  0  0  0  0  0  0  0  0
   -3.4448    1.5805    0.0000 F   0  0  0  0  0  0  0  0  0  0  0  0
   -1.3442    2.2172    0.0000 C   0  0  0  0  0  0  0  0  0  0  0  0
   -1.6560    3.6844    0.0000 F   0  0  0  0  0  0  0  0  0  0  0  0
   -2.6890    2.0996    0.0000 F   0  0  0  0  0  0  0  0  0  0  0  0
    0.1231    2.5291    0.0000 F   0  0  0  0  0  0  0  0  0  0  0  0
   -1.0323   -0.7500    0.0000 O   0  0  0  0  0  0  0  0  0  0  0  0
    0.3943   -1.2135    0.0000 C   0  0  0  0  0  0  0  0  0  0  0  0
   -0.2158   -2.5838    0.0000 F   0  0  0  0  0  0  0  0  0  0  0  0
    1.6933   -1.9635    0.0000 C   0  0  0  0  0  0  0  0  0  0  0  0
    2.9924   -2.7135    0.0000 F   0  0  0  0  0  0  0  0  0  0  0  0
    0.9433   -3.2626    0.0000 F   0  0  0  0  0  0  0  0  0  0  0  0
    2.5961   -0.7656    0.0000 F   0  0  0  0  0  0  0  0  0  0  0  0
  1  2  2  0
  2  3  1  0
  3  4  1  0
  4  5  1  0
  5  6  2  0
  5  7  1  0
  4  8  1  0
  8  9  1  0
  8 10  1  0
  8 11  1  0
  4 12  1  0
 12 13  1  0
 13 14  1  0
 13 15  1  0
 15 16  1  0
 15 17  1  0
 15 18  1  0
 13  2  1  0
M  END
$$$$

     RDKit          2D

 80 79  0  0  0  0  0  0  0  0999 V2000
   -1.2990    0.7500    0.0000 O   0  0  0  0  0  0  0  0  0  0  0  0
    0.0000    0.0000    0.0000 C   0  0  0  0  0  0  0  0  0  0  0  0
   -0.0000   -1.5000    0.0000 F   0  0  0  0  0  0  0  0  0  0  0  0
    1.2990    0.7500    0.0000 C   0  0  0  0  0  0  0  0  0  0  0  0
    0.5490    2.0490    0.0000 F   0  0  0  0  0  0  0  0  0  0  0  0
    2.0490   -0.5490    0.0000 O   0  0  0  0  0  0  0  0  0  0  0  0
    3.5490   -0.5490    0.0000 C   0  0  0  0  0  0  0  0  0  0  0  0
    3.7319    0.9398    0.0000 F   0  0  0  0  0  0  0  0  0  0  0  0
    3.5490   -2.0490    0.0000 F   0  0  0  0  0  0  0  0  0  0  0  0
    5.0490   -0.5490    0.0000 C   0  0  0  0  0  0  0  0  0  0  0  0
    5.0490    0.9510    0.0000 F   0  0  0  0  0  0  0  0  0  0  0  0
    5.0490   -2.0490    0.0000 O   0  0  0  0  0  0  0  0  0  0  0  0
    6.3481   -2.7990    0.0000 C   0  0  0  0  0  0  0  0  0  0  0  0
    7.2508   -1.6011    0.0000 F   0  0  0  0  0  0  0  0  0  0  0  0
    5.5981   -4.0981    0.0000 F   0  0  0  0  0  0  0  0  0  0  0  0
    7.6471   -3.5490    0.0000 C   0  0  0  0  0  0  0  0  0  0  0  0
    8.3971   -2.2500    0.0000 F   0  0  0  0  0  0  0  0  0  0  0  0
    6.8971   -4.8481    0.0000 O   0  0  0  0  0  0  0  0  0  0  0  0
    7.6471   -6.1471    0.0000 C   0  0  0  0  0  0  0  0  0  0  0  0
    9.0279   -5.5611    0.0000 F   0  0  0  0  0  0  0  0  0  0  0  0
    6.3481   -6.8971    0.0000 F   0  0  0  0  0  0  0  0  0  0  0  0
    8.3971   -7.4462    0.0000 C   0  0  0  0  0  0  0  0  0  0  0  0
    9.6962   -6.6962    0.0000 F   0  0  0  0  0  0  0  0  0  0  0  0
    7.0981   -8.1962    0.0000 O   0  0  0  0  0  0  0  0  0  0  0  0
    7.0981   -9.6962    0.0000 C   0  0  0  0  0  0  0  0  0  0  0  0
    8.5869   -9.8790    0.0000 F   0  0  0  0  0  0  0  0  0  0  0  0
    5.5981   -9.6962    0.0000 F   0  0  0  0  0  0  0  0  0  0  0  0
    7.0981  -11.1962    0.0000 C   0  0  0  0  0  0  0  0  0  0  0  0
    8.5981  -11.1962    0.0000 F   0  0  0  0  0  0  0  0  0  0  0  0
    5.5981  -11.1962    0.0000 O   0  0  0  0  0  0  0  0  0  0  0  0
    4.8481  -12.4952    0.0000 C   0  0  0  0  0  0  0  0  0  0  0  0
    6.0460  -13.3979    0.0000 F   0  0  0  0  0  0  0  0  0  0  0  0
    3.5490  -11.7452    0.0000 F   0  0  0  0  0  0  0  0  0  0  0  0
    4.0981  -13.7942    0.0000 C   0  0  0  0  0  0  0  0  0  0  0  0
    5.3971  -14.5442    0.0000 F   0  0  0  0  0  0  0  0  0  0  0  0
    2.7990  -13.0442    0.0000 O   0  0  0  0  0  0  0  0  0  0  0  0
    1.5000  -13.7942    0.0000 C   0  0  0  0  0  0  0  0  0  0  0  0
    2.0861  -15.1750    0.0000 F   0  0  0  0  0  0  0  0  0  0  0  0
    0.7500  -12.4952    0.0000 F   0  0  0  0  0  0  0  0  0  0  0  0
    0.2010  -14.5442    0.0000 C   0  0  0  0  0  0  0  0  0  0  0  0
    0.9510  -15.8433    0.0000 F   0  0  0  0  0  0  0  0  0  0  0  0
   -0.5490  -13.2452    0.0000 O   0  0  0  0  0  0  0  0  0  0  0  0
   -2.0490  -13.2452    0.0000 C   0  0  0  0  0  0  0  0  0  0  0  0
   -2.1462  -14.0364    0.0000 F   0  0  0  0  0  0  0  0  0  0  0  0
   -2.0490  -11.7452    0.0000 F   0  0  0  0  0  0  0  0  0  0  0  0
   -3.5490  -13.2452    0.0000 C   0  0  0  0  0  0  0  0  0  0  0  0
   -3.5490  -11.7452    0.0000 F   0  0  0  0  0  0  0  0  0  0  0  0
   -3.5490  -14.7452    0.0000 F   0  0  0  0  0  0  0  0  0  0  0  0
   -5.0490  -13.2452    0.0000 C   0  0  0  0  0  0  0  0  0  0  0  0
   -6.5490  -13.2452    0.0000 F   0  0  0  0  0  0  0  0  0  0  0  0
   -5.0490  -14.7452    0.0000 F   0  0  0  0  0  0  0  0  0  0  0  0
   -5.0490  -11.7452    0.0000 F   0  0  0  0  0  0  0  0  0  0  0  0
   -1.0981  -15.2942    0.0000 C   0  0  0  0  0  0  0  0  0  0  0  0
   -2.3971  -16.0442    0.0000 F   0  0  0  0  0  0  0  0  0  0  0  0
   -0.3481  -16.5933    0.0000 F   0  0  0  0  0  0  0  0  0  0  0  0
   -1.7176  -14.7926    0.0000 F   0  0  0  0  0  0  0  0  0  0  0  0
    3.3481  -15.0933    0.0000 C   0  0  0  0  0  0  0  0  0  0  0  0
    2.5981  -16.3923    0.0000 F   0  0  0  0  0  0  0  0  0  0  0  0
    4.6471  -15.8433    0.0000 F   0  0  0  0  0  0  0  0  0  0  0  0
    1.8665  -14.8587    0.0000 F   0  0  0  0  0  0  0  0  0  0  0  0
    7.0981  -12.6962    0.0000 C   0  0  0  0  0  0  0  0  0  0  0  0
    7.0981  -14.1962    0.0000 F   0  0  0  0  0  0  0  0  0  0  0  0
    8.5981  -12.6962    0.0000 F   0  0  0  0  0  0  0  0  0  0  0  0
    5.6977  -13.2338    0.0000 F   0  0  0  0  0  0  0  0  0  0  0  0
    9.1471   -8.7452    0.0000 C   0  0  0  0  0  0  0  0  0  0  0  0
    9.8971  -10.0442    0.0000 F   0  0  0  0  0  0  0  0  0  0  0  0
   10.4462   -7.9952    0.0000 F   0  0  0  0  0  0  0  0  0  0  0  0
    8.2032   -9.9110    0.0000 F   0  0  0  0  0  0  0  0  0  0  0  0
    8.9462   -4.2990    0.0000 C   0  0  0  0  0  0  0  0  0  0  0  0
   10.2452   -5.0490    0.0000 F   0  0  0  0  0  0  0  0  0  0  0  0
    9.6962   -3.0000    0.0000 F   0  0  0  0  0  0  0  0  0  0  0  0
    8.7116   -5.7806    0.0000 F   0  0  0  0  0  0  0  0  0  0  0  0
    6.5490   -0.5490    0.0000 C   0  0  0  0  0  0  0  0  0  0  0  0
    8.0490   -0.5490    0.0000 F   0  0  0  0  0  0  0  0  0  0  0  0
    6.5490    0.9510    0.0000 F   0  0  0  0  0  0  0  0  0  0  0  0
    7.0867   -1.9494    0.0000 F   0  0  0  0  0  0  0  0  0  0  0  0
    2.5981    1.5000    0.0000 C   0  0  0  0  0  0  0  0  0  0  0  0
    3.8971    2.2500    0.0000 F   0  0  0  0  0  0  0  0  0  0  0  0
    1.8481    2.7990    0.0000 F   0  0  0  0  0  0  0  0  0  0  0  0
    3.7639    0.5561    0.0000 F   0  0  0  0  0  0  0  0  0  0  0  0
  1  2  2  0
  2  3  1  0
  2  4  1  0
  4  5  1  0
  4  6  1  0
  6  7  1  0
  7  8  1  0
  7  9  1  0
  7 10  1  0
 10 11  1  0
 10 12  1  0
 12 13  1  0
 13 14  1  0
 13 15  1  0
 13 16  1  0
 16 17  1  0
 16 18  1  0
 18 19  1  0
 19 20  1  0
 19 21  1  0
 19 22  1  0
 22 23  1  0
 22 24  1  0
 24 25  1  0
 25 26  1  0
 25 27  1  0
 25 28  1  0
 28 29  1  0
 28 30  1  0
 30 31  1  0
 31 32  1  0
 31 33  1  0
 31 34  1  0
 34 35  1  0
 34 36  1  0
 36 37  1  0
 37 38  1  0
 37 39  1  0
 37 40  1  0
 40 41  1  0
 40 42  1  0
 42 43  1  0
 43 44  1  0
 43 45  1  0
 43 46  1  0
 46 47  1  0
 46 48  1  0
 46 49  1  0
 49 50  1  0
 49 51  1  0
 49 52  1  0
 40 53  1  0
 53 54  1  0
 53 55  1  0
 53 56  1  0
 34 57  1  0
 57 58  1  0
 57 59  1  0
 57 60  1  0
 28 61  1  0
 61 62  1  0
 61 63  1  0
 61 64  1  0
 22 65  1  0
 65 66  1  0
 65 67  1  0
 65 68  1  0
 16 69  1  0
 69 70  1  0
 69 71  1  0
 69 72  1  0
 10 73  1  0
 73 74  1  0
 73 75  1  0
 73 76  1  0
  4 77  1  0
 77 78  1  0
 77 79  1  0
 77 80  1  0
M  END
$$$$

     RDKit          2D

 80 79  0  0  0  0  0  0  0  0999 V2000
   -0.0000   -1.5000    0.0000 F   0  0  0  0  0  0  0  0  0  0  0  0
    0.0000    0.0000    0.0000 C   0  0  0  0  0  0  0  0  0  0  0  0
   -1.2990    0.7500    0.0000 O   0  0  0  0  0  0  0  0  0  0  0  0
   -2.5981    0.0000    0.0000 C   0  0  0  0  0  0  0  0  0  0  0  0
   -1.8481   -1.2990    0.0000 F   0  0  0  0  0  0  0  0  0  0  0  0
   -3.3481    1.2990    0.0000 F   0  0  0  0  0  0  0  0  0  0  0  0
   -3.8971   -0.7500    0.0000 C   0  0  0  0  0  0  0  0  0  0  0  0
   -4.6471    0.5490    0.0000 F   0  0  0  0  0  0  0  0  0  0  0  0
   -3.1471   -2.0490    0.0000 O   0  0  0  0  0  0  0  0  0  0  0  0
   -3.8971   -3.3481    0.0000 C   0  0  0  0  0  0  0  0  0  0  0  0
   -5.2779   -2.7620    0.0000 F   0  0  0  0  0  0  0  0  0  0  0  0
   -2.5981   -4.0981    0.0000 F   0  0  0  0  0  0  0  0  0  0  0  0
   -4.6471   -4.6471    0.0000 C   0  0  0  0  0  0  0  0  0  0  0  0
   -5.9462   -3.8971    0.0000 F   0  0  0  0  0  0  0  0  0  0  0  0
   -3.3481   -5.3971    0.0000 O   0  0  0  0  0  0  0  0  0  0  0  0
   -3.3481   -6.8971    0.0000 C   0  0  0  0  0  0  0  0  0  0  0  0
   -4.8369   -7.0800    0.0000 F   0  0  0  0  0  0  0  0  0  0  0  0
   -1.8481   -6.8971    0.0000 F   0  0  0  0  0  0  0  0  0  0  0  0
   -3.3481   -8.3971    0.0000 C   0  0  0  0  0  0  0  0  0  0  0  0
   -4.8481   -8.3971    0.0000 F   0  0  0  0  0  0  0  0  0  0  0  0
   -1.8481   -8.3971    0.0000 O   0  0  0  0  0  0  0  0  0  0  0  0
   -1.0981   -9.6962    0.0000 C   0  0  0  0  0  0  0  0  0  0  0  0
   -2.2960  -10.5989    0.0000 F   0  0  0  0  0  0  0  0  0  0  0  0
    0.2010   -8.9462    0.0000 F   0  0  0  0  0  0  0  0  0  0  0  0
   -0.3481  -10.9952    0.0000 C   0  0  0  0  0  0  0  0  0  0  0  0
   -1.6471  -11.7452    0.0000 F   0  0  0  0  0  0  0  0  0  0  0  0
    0.9510  -10.2452    0.0000 O   0  0  0  0  0  0  0  0  0  0  0  0
    2.2500  -10.9952    0.0000 C   0  0  0  0  0  0  0  0  0  0  0  0
    1.6639  -12.3760    0.0000 F   0  0  0  0  0  0  0  0  0  0  0  0
    3.0000   -9.6962    0.0000 F   0  0  0  0  0  0  0  0  0  0  0  0
    3.5490  -11.7452    0.0000 C   0  0  0  0  0  0  0  0  0  0  0  0
    2.7990  -13.0442    0.0000 F   0  0  0  0  0  0  0  0  0  0  0  0
    4.2990  -10.4462    0.0000 O   0  0  0  0  0  0  0  0  0  0  0  0
    5.7990  -10.4462    0.0000 C   0  0  0  0  0  0  0  0  0  0  0  0
    5.9819  -11.9350    0.0000 F   0  0  0  0  0  0  0  0  0  0  0  0
    5.7990   -8.9462    0.0000 F   0  0  0  0  0  0  0  0  0  0  0  0
    7.2990  -10.4462    0.0000 C   0  0  0  0  0  0  0  0  0  0  0  0
    7.2990  -11.9462    0.0000 F   0  0  0  0  0  0  0  0  0  0  0  0
    7.2990   -8.9462    0.0000 O   0  0  0  0  0  0  0  0  0  0  0  0
    8.5981   -8.1962    0.0000 C   0  0  0  0  0  0  0  0  0  0  0  0
    9.1311   -8.9035    0.0000 F   0  0  0  0  0  0  0  0  0  0  0  0
    8.0650   -7.4888    0.0000 F   0  0  0  0  0  0  0  0  0  0  0  0
    9.8971   -7.4462    0.0000 C   0  0  0  0  0  0  0  0  0  0  0  0
   10.6471   -8.7452    0.0000 F   0  0  0  0  0  0  0  0  0  0  0  0
   11.1962   -6.6962    0.0000 C   0  0  0  0  0  0  0  0  0  0  0  0
   12.4952   -5.9462    0.0000 F   0  0  0  0  0  0  0  0  0  0  0  0
   11.9462   -7.9952    0.0000 F   0  0  0  0  0  0  0  0  0  0  0  0
   10.8501   -5.8808    0.0000 F   0  0  0  0  0  0  0  0  0  0  0  0
    9.1471   -6.1471    0.0000 C   0  0  0  0  0  0  0  0  0  0  0  0
    8.3971   -4.8481    0.0000 F   0  0  0  0  0  0  0  0  0  0  0  0
    9.8545   -5.6140    0.0000 F   0  0  0  0  0  0  0  0  0  0  0  0
    8.3318   -6.4932    0.0000 F   0  0  0  0  0  0  0  0  0  0  0  0
    8.7990  -10.4462    0.0000 C   0  0  0  0  0  0  0  0  0  0  0  0
   10.2990  -10.4462    0.0000 F   0  0  0  0  0  0  0  0  0  0  0  0
    8.7990  -11.9462    0.0000 F   0  0  0  0  0  0  0  0  0  0  0  0
    9.1165   -9.6193    0.0000 F   0  0  0  0  0  0  0  0  0  0  0  0
    4.8481  -12.4952    0.0000 C   0  0  0  0  0  0  0  0  0  0  0  0
    6.1471  -13.2452    0.0000 F   0  0  0  0  0  0  0  0  0  0  0  0
    4.0981  -13.7942    0.0000 F   0  0  0  0  0  0  0  0  0  0  0  0
    6.0139  -11.5513    0.0000 F   0  0  0  0  0  0  0  0  0  0  0  0
    0.4019  -12.2942    0.0000 C   0  0  0  0  0  0  0  0  0  0  0  0
    1.1519  -13.5933    0.0000 F   0  0  0  0  0  0  0  0  0  0  0  0
   -0.8971  -13.0442    0.0000 F   0  0  0  0  0  0  0  0  0  0  0  0
    1.8835  -12.0597    0.0000 F   0  0  0  0  0  0  0  0  0  0  0  0
   -3.3481   -9.8971    0.0000 C   0  0  0  0  0  0  0  0  0  0  0  0
   -3.3481  -11.3971    0.0000 F   0  0  0  0  0  0  0  0  0  0  0  0
   -4.8481   -9.8971    0.0000 F   0  0  0  0  0  0  0  0  0  0  0  0
   -1.9477  -10.4348    0.0000 F   0  0  0  0  0  0  0  0  0  0  0  0
   -5.3971   -5.9462    0.0000 C   0  0  0  0  0  0  0  0  0  0  0  0
   -6.1471   -7.2452    0.0000 F   0  0  0  0  0  0  0  0  0  0  0  0
   -6.6962   -5.1962    0.0000 F   0  0  0  0  0  0  0  0  0  0  0  0
   -4.4532   -7.1119    0.0000 F   0  0  0  0  0  0  0  0  0  0  0  0
   -5.1962   -1.5000    0.0000 C   0  0  0  0  0  0  0  0  0  0  0  0
   -6.4952   -2.2500    0.0000 F   0  0  0  0  0  0  0  0  0  0  0  0
   -5.9462   -0.2010    0.0000 F   0  0  0  0  0  0  0  0  0  0  0  0
   -4.9616   -2.9816    0.0000 F   0  0  0  0  0  0  0  0  0  0  0  0
    1.2990    0.7500    0.0000 C   0  0  0  0  0  0  0  0  0  0  0  0
    2.5981    1.5000    0.0000 F   0  0  0  0  0  0  0  0  0  0  0  0
    2.0490   -0.5490    0.0000 F   0  0  0  0  0  0  0  0  0  0  0  0
    0.5490    2.0490    0.0000 F   0  0  0  0  0  0  0  0  0  0  0  0
  1  2  1  0
  2  3  1  0
  3  4  1  0
  4  5  1  0
  4  6  1  0
  4  7  1  0
  7  8  1  0
  7  9  1  0
  9 10  1  0
 10 11  1  0
 10 12  1  0
 10 13  1  0
 13 14  1  0
 13 15  1  0
 15 16  1  0
 16 17  1  0
 16 18  1  0
 16 19  1  0
 19 20  1  0
 19 21  1  0
 21 22  1  0
 22 23  1  0
 22 24  1  0
 22 25  1  0
 25 26  1  0
 25 27  1  0
 27 28  1  0
 28 29  1  0
 28 30  1  0
 28 31  1  0
 31 32  1  0
 31 33  1  0
 33 34  1  0
 34 35  1  0
 34 36  1  0
 34 37  1  0
 37 38  1  0
 37 39  1  0
 39 40  1  0
 40 41  1  0
 40 42  1  0
 40 43  1  0
 43 44  1  0
 43 45  1  0
 45 46  1  0
 45 47  1  0
 45 48  1  0
 43 49  1  0
 49 50  1  0
 49 51  1  0
 49 52  1  0
 37 53  1  0
 53 54  1  0
 53 55  1  0
 53 56  1  0
 31 57  1  0
 57 58  1  0
 57 59  1  0
 57 60  1  0
 25 61  1  0
 61 62  1  0
 61 63  1  0
 61 64  1  0
 19 65  1  0
 65 66  1  0
 65 67  1  0
 65 68  1  0
 13 69  1  0
 69 70  1  0
 69 71  1  0
 69 72  1  0
  7 73  1  0
 73 74  1  0
 73 75  1  0
 73 76  1  0
  2 77  1  0
 77 78  1  0
 77 79  1  0
 77 80  1  0
M  END
$$$$

     RDKit          2D

 21 20  0  0  0  0  0  0  0  0999 V2000
    0.0000    0.0000    0.0000 C   0  0  0  0  0  0  0  0  0  0  0  0
    1.2990    0.7500    0.0000 C   0  0  0  0  0  0  0  0  0  0  0  0
    1.2990    2.2500    0.0000 O   0  0  0  0  0  0  0  0  0  0  0  0
    0.0000    3.0000    0.0000 C   0  0  0  0  0  0  0  0  0  0  0  0
   -0.7500    1.7010    0.0000 F   0  0  0  0  0  0  0  0  0  0  0  0
    0.7500    4.2990    0.0000 F   0  0  0  0  0  0  0  0  0  0  0  0
   -1.2990    3.7500    0.0000 C   0  0  0  0  0  0  0  0  0  0  0  0
   -1.2990    5.2500    0.0000 F   0  0  0  0  0  0  0  0  0  0  0  0
   -2.5981    3.0000    0.0000 C   0  0  0  0  0  0  0  0  0  0  0  0
   -3.8971    2.2500    0.0000 F   0  0  0  0  0  0  0  0  0  0  0  0
   -3.3481    4.2990    0.0000 F   0  0  0  0  0  0  0  0  0  0  0  0
   -1.8481    1.7010    0.0000 F   0  0  0  0  0  0  0  0  0  0  0  0
    2.5981    0.0000    0.0000 C   0  0  0  0  0  0  0  0  0  0  0  0
    3.3481    1.2990    0.0000 F   0  0  0  0  0  0  0  0  0  0  0  0
    1.8481   -1.2990    0.0000 F   0  0  0  0  0  0  0  0  0  0  0  0
    3.8971   -0.7500    0.0000 C   0  0  0  0  0  0  0  0  0  0  0  0
    5.1962   -0.0000    0.0000 F   0  0  0  0  0  0  0  0  0  0  0  0
    3.8971   -2.2500    0.0000 C   0  0  0  0  0  0  0  0  0  0  0  0
    3.8971   -3.7500    0.0000 F   0  0  0  0  0  0  0  0  0  0  0  0
    5.3971   -2.2500    0.0000 F   0  0  0  0  0  0  0  0  0  0  0  0
    2.3971   -2.2500    0.0000 F   0  0  0  0  0  0  0  0  0  0  0  0
  1  2  1  0
  2  3  1  0
  3  4  1  0
  4  5  1  0
  4  6  1  0
  4  7  1  0
  7  8  1  0
  7  9  1  0
  9 10  1  0
  9 11  1  0
  9 12  1  0
  2 13  1  0
 13 14  1  0
 13 15  1  0
 13 16  1  0
 16 17  1  0
 16 18  1  0
 18 19  1  0
 18 20  1  0
 18 21  1  0
M  END
$$$$

     RDKit          2D

 36 34  0  0  0  0  0  0  0  0999 V2000
    0.0000    0.0000    0.0000 C   0  0  0  0  0  0  0  0  0  0  0  0
    1.2990    0.7500    0.0000 C   0  0  0  0  0  0  0  0  0  0  0  0
    2.5981    1.5000    0.0000 C   0  0  0  0  0  0  0  0  0  0  0  0
    2.0490   -0.5490    0.0000 C   0  0  0  0  0  0  0  0  0  0  0  0
    3.5490   -0.5490    0.0000 S   0  0  0  0  0  0  0  0  0  0  0  0
    3.5490   -2.0490    0.0000 O   0  0  0  0  0  0  0  0  0  0  0  0
    3.5490    0.9510    0.0000 O   0  0  0  0  0  0  0  0  0  0  0  0
    5.0490   -0.5490    0.0000 O   0  0  0  0  0  0  0  0  0  0  0  0
    0.5490    2.0490    0.0000 N   0  0  0  0  0  0  0  0  0  0  0  0
    1.2990    3.3481    0.0000 C   0  0  0  0  0  0  0  0  0  0  0  0
    2.7990    3.3481    0.0000 O   0  0  0  0  0  0  0  0  0  0  0  0
    0.5490    4.6471    0.0000 C   0  0  0  0  0  0  0  0  0  0  0  0
    1.2990    5.9462    0.0000 C   0  0  0  0  0  0  0  0  0  0  0  0
    0.5490    7.2452    0.0000 S   0  0  0  0  0  0  0  0  0  0  0  0
    1.2990    8.5442    0.0000 C   0  0  0  0  0  0  0  0  0  0  0  0
    0.5490    9.8433    0.0000 C   0  0  0  0  0  0  0  0  0  0  0  0
    1.2990   11.1423    0.0000 C   0  0  0  0  0  0  0  0  0  0  0  0
    0.0000   11.8923    0.0000 F   0  0  0  0  0  0  0  0  0  0  0  0
    2.5981   10.3923    0.0000 F   0  0  0  0  0  0  0  0  0  0  0  0
    2.0490   12.4413    0.0000 C   0  0  0  0  0  0  0  0  0  0  0  0
    3.3481   11.6913    0.0000 F   0  0  0  0  0  0  0  0  0  0  0  0
    0.7500   13.1913    0.0000 F   0  0  0  0  0  0  0  0  0  0  0  0
    2.7990   13.7404    0.0000 C   0  0  0  0  0  0  0  0  0  0  0  0
    1.5000   14.4904    0.0000 F   0  0  0  0  0  0  0  0  0  0  0  0
    4.0981   12.9904    0.0000 F   0  0  0  0  0  0  0  0  0  0  0  0
    3.5490   15.0394    0.0000 C   0  0  0  0  0  0  0  0  0  0  0  0
    4.8481   14.2894    0.0000 F   0  0  0  0  0  0  0  0  0  0  0  0
    2.2500   15.7894    0.0000 F   0  0  0  0  0  0  0  0  0  0  0  0
    4.2990   16.3385    0.0000 C   0  0  0  0  0  0  0  0  0  0  0  0
    3.0000   17.0885    0.0000 F   0  0  0  0  0  0  0  0  0  0  0  0
    5.5981   15.5885    0.0000 F   0  0  0  0  0  0  0  0  0  0  0  0
    5.0490   17.6375    0.0000 C   0  0  0  0  0  0  0  0  0  0  0  0
    5.7990   18.9365    0.0000 F   0  0  0  0  0  0  0  0  0  0  0  0
    6.3481   16.8875    0.0000 F   0  0  0  0  0  0  0  0  0  0  0  0
    3.7500   18.3875    0.0000 F   0  0  0  0  0  0  0  0  0  0  0  0
    7.3481    0.0000    0.0000 K   0  0  0  0  0 15  0  0  0  0  0  0
  1  2  1  0
  2  3  1  0
  2  4  1  0
  4  5  1  0
  5  6  2  0
  5  7  2  0
  5  8  1  0
  2  9  1  0
  9 10  1  0
 10 11  2  0
 10 12  1  0
 12 13  1  0
 13 14  1  0
 14 15  1  0
 15 16  1  0
 16 17  1  0
 17 18  1  0
 17 19  1  0
 17 20  1  0
 20 21  1  0
 20 22  1  0
 20 23  1  0
 23 24  1  0
 23 25  1  0
 23 26  1  0
 26 27  1  0
 26 28  1  0
 26 29  1  0
 29 30  1  0
 29 31  1  0
 29 32  1  0
 32 33  1  0
 32 34  1  0
 32 35  1  0
M  CHG  2   8  -1  36   1
M  END
$$$$

     RDKit          2D

 27 26  0  0  0  0  0  0  0  0999 V2000
   -4.0981   -6.6962    0.0000 O   0  0  0  0  0  0  0  0  0  0  0  0
   -3.3481   -5.3971    0.0000 S   0  0  0  0  0  0  0  0  0  0  0  0
   -2.8683   -4.7605    0.0000 O   0  0  0  0  0  0  0  0  0  0  0  0
   -2.0490   -6.1471    0.0000 O   0  0  0  0  0  0  0  0  0  0  0  0
   -4.6471   -4.6471    0.0000 C   0  0  0  0  0  0  0  0  0  0  0  0
   -5.3971   -5.9462    0.0000 F   0  0  0  0  0  0  0  0  0  0  0  0
   -5.9462   -3.8971    0.0000 F   0  0  0  0  0  0  0  0  0  0  0  0
   -3.8971   -3.3481    0.0000 C   0  0  0  0  0  0  0  0  0  0  0  0
   -5.2779   -2.7620    0.0000 F   0  0  0  0  0  0  0  0  0  0  0  0
   -3.0818   -3.6941    0.0000 F   0  0  0  0  0  0  0  0  0  0  0  0
   -3.1471   -2.0490    0.0000 O   0  0  0  0  0  0  0  0  0  0  0  0
   -3.8971   -0.7500    0.0000 C   0  0  0  0  0  0  0  0  0  0  0  0
   -4.6471    0.5490    0.0000 F   0  0  0  0  0  0  0  0  0  0  0  0
   -5.1962   -1.5000    0.0000 C   0  0  0  0  0  0  0  0  0  0  0  0
   -6.4952   -2.2500    0.0000 F   0  0  0  0  0  0  0  0  0  0  0  0
   -5.9462   -0.2010    0.0000 F   0  0  0  0  0  0  0  0  0  0  0  0
   -4.9616   -2.9816    0.0000 F   0  0  0  0  0  0  0  0  0  0  0  0
   -2.5981    0.0000    0.0000 C   0  0  0  0  0  0  0  0  0  0  0  0
   -1.8481   -1.2990    0.0000 F   0  0  0  0  0  0  0  0  0  0  0  0
   -3.3481    1.2990    0.0000 F   0  0  0  0  0  0  0  0  0  0  0  0
   -1.2990    0.7500    0.0000 O   0  0  0  0  0  0  0  0  0  0  0  0
    0.0000    0.0000    0.0000 C   0  0  0  0  0  0  0  0  0  0  0  0
   -0.0000   -1.5000    0.0000 F   0  0  0  0  0  0  0  0  0  0  0  0
    1.2990    0.7500    0.0000 C   0  0  0  0  0  0  0  0  0  0  0  0
    2.5981    1.5000    0.0000 F   0  0  0  0  0  0  0  0  0  0  0  0
    2.0490   -0.5490    0.0000 F   0  0  0  0  0  0  0  0  0  0  0  0
    0.5490    2.0490    0.0000 F   0  0  0  0  0  0  0  0  0  0  0  0
  1  2  2  0
  2  3  2  0
  2  4  1  0
  2  5  1  0
  5  6  1  0
  5  7  1  0
  5  8  1  0
  8  9  1  0
  8 10  1  0
  8 11  1  0
 11 12  1  0
 12 13  1  0
 12 14  1  0
 14 15  1  0
 14 16  1  0
 14 17  1  0
 12 18  1  0
 18 19  1  0
 18 20  1  0
 18 21  1  0
 21 22  1  0
 22 23  1  0
 22 24  1  0
 24 25  1  0
 24 26  1  0
 24 27  1  0
M  END
$$$$

     RDKit          2D

 27 27  0  0  0  0  0  0  0  0999 V2000
    1.8321   -2.2222    0.0000 O   0  0  0  0  0  0  0  0  0  0  0  0
    2.6491   -0.9642    0.0000 S   0  0  0  0  0  0  0  0  0  0  0  0
    3.2321   -0.4205    0.0000 O   0  0  0  0  0  0  0  0  0  0  0  0
    3.7981   -1.9284    0.0000 O   0  0  0  0  0  0  0  0  0  0  0  0
    1.5000    0.0000    0.0000 C   0  0  0  0  0  0  0  0  0  0  0  0
    2.6491    0.9642    0.0000 C   0  0  0  0  0  0  0  0  0  0  0  0
    1.8321    2.2222    0.0000 F   0  0  0  0  0  0  0  0  0  0  0  0
    3.2969    0.3601    0.0000 F   0  0  0  0  0  0  0  0  0  0  0  0
    3.7981    1.9284    0.0000 C   0  0  0  0  0  0  0  0  0  0  0  0
    4.9472    2.8925    0.0000 F   0  0  0  0  0  0  0  0  0  0  0  0
    4.7623    0.7793    0.0000 F   0  0  0  0  0  0  0  0  0  0  0  0
    2.8340    3.0774    0.0000 F   0  0  0  0  0  0  0  0  0  0  0  0
    0.7500   -1.2990    0.0000 C   0  0  0  0  0  0  0  0  0  0  0  0
    2.0865   -1.9801    0.0000 F   0  0  0  0  0  0  0  0  0  0  0  0
    0.4895   -2.7762    0.0000 F   0  0  0  0  0  0  0  0  0  0  0  0
   -0.7500   -1.2990    0.0000 C   0  0  0  0  0  0  0  0  0  0  0  0
   -0.4895   -2.7762    0.0000 F   0  0  0  0  0  0  0  0  0  0  0  0
   -2.1595   -1.8121    0.0000 F   0  0  0  0  0  0  0  0  0  0  0  0
   -1.5000    0.0000    0.0000 C   0  0  0  0  0  0  0  0  0  0  0  0
   -2.6491   -0.9642    0.0000 F   0  0  0  0  0  0  0  0  0  0  0  0
   -2.6491    0.9642    0.0000 F   0  0  0  0  0  0  0  0  0  0  0  0
   -0.7500    1.2990    0.0000 C   0  0  0  0  0  0  0  0  0  0  0  0
   -2.1595    1.8121    0.0000 F   0  0  0  0  0  0  0  0  0  0  0  0
   -0.4895    2.7762    0.0000 F   0  0  0  0  0  0  0  0  0  0  0  0
    0.7500    1.2990    0.0000 C   0  0  0  0  0  0  0  0  0  0  0  0
    0.4895    2.7762    0.0000 F   0  0  0  0  0  0  0  0  0  0  0  0
    2.0865    1.9801    0.0000 F   0  0  0  0  0  0  0  0  0  0  0  0
  1  2  2  0
  2  3  2  0
  2  4  1  0
  2  5  1  0
  5  6  1  0
  6  7  1  0
  6  8  1  0
  6  9  1  0
  9 10  1  0
  9 11  1  0
  9 12  1  0
  5 13  1  0
 13 14  1  0
 13 15  1  0
 13 16  1  0
 16 17  1  0
 16 18  1  0
 16 19  1  0
 19 20  1  0
 19 21  1  0
 19 22  1  0
 22 23  1  0
 22 24  1  0
 22 25  1  0
 25 26  1  0
 25 27  1  0
 25  5  1  0
M  END
$$$$

     RDKit          2D

 10  9  0  0  0  0  0  0  0  0999 V2000
   -0.0000   -1.5000    0.0000 O   0  0  0  0  0  0  0  0  0  0  0  0
    0.0000    0.0000    0.0000 C   0  0  0  0  0  0  0  0  0  0  0  0
   -1.2990    0.7500    0.0000 O   0  0  0  0  0  0  0  0  0  0  0  0
    1.2990    0.7500    0.0000 C   0  0  0  0  0  0  0  0  0  0  0  0
    2.0490   -0.5490    0.0000 F   0  0  0  0  0  0  0  0  0  0  0  0
    0.5490    2.0490    0.0000 F   0  0  0  0  0  0  0  0  0  0  0  0
    2.5981    1.5000    0.0000 C   0  0  0  0  0  0  0  0  0  0  0  0
    3.8971    2.2500    0.0000 F   0  0  0  0  0  0  0  0  0  0  0  0
    1.8481    2.7990    0.0000 F   0  0  0  0  0  0  0  0  0  0  0  0
    3.3481    0.2010    0.0000 F   0  0  0  0  0  0  0  0  0  0  0  0
  1  2  2  0
  2  3  1  0
  2  4  1  0
  4  5  1  0
  4  6  1  0
  4  7  1  0
  7  8  1  0
  7  9  1  0
  7 10  1  0
M  CHG  1   3  -1
M  END
$$$$

     RDKit          2D

 32 31  0  0  0  0  0  0  0  0999 V2000
    0.0000    0.0000    0.0000 C   0  0  0  0  0  0  0  0  0  0  0  0
    1.2990    0.7500    0.0000 N   0  0  0  0  0  0  0  0  0  0  0  0
    2.5981    1.5000    0.0000 C   0  0  0  0  0  0  0  0  0  0  0  0
    2.0490   -0.5490    0.0000 C   0  0  0  0  0  0  0  0  0  0  0  0
    3.5490   -0.5490    0.0000 C   0  0  0  0  0  0  0  0  0  0  0  0
    4.2990   -1.8481    0.0000 C   0  0  0  0  0  0  0  0  0  0  0  0
    5.7990   -1.8481    0.0000 C   0  0  0  0  0  0  0  0  0  0  0  0
    5.7990   -3.3481    0.0000 F   0  0  0  0  0  0  0  0  0  0  0  0
    5.7990   -0.3481    0.0000 F   0  0  0  0  0  0  0  0  0  0  0  0
    7.2990   -1.8481    0.0000 C   0  0  0  0  0  0  0  0  0  0  0  0
    7.2990   -0.3481    0.0000 F   0  0  0  0  0  0  0  0  0  0  0  0
    7.2990   -3.3481    0.0000 F   0  0  0  0  0  0  0  0  0  0  0  0
    8.7990   -1.8481    0.0000 C   0  0  0  0  0  0  0  0  0  0  0  0
    8.7990   -3.3481    0.0000 F   0  0  0  0  0  0  0  0  0  0  0  0
    8.7990   -0.3481    0.0000 F   0  0  0  0  0  0  0  0  0  0  0  0
   10.2990   -1.8481    0.0000 C   0  0  0  0  0  0  0  0  0  0  0  0
   10.2990   -0.3481    0.0000 F   0  0  0  0  0  0  0  0  0  0  0  0
   10.2990   -3.3481    0.0000 F   0  0  0  0  0  0  0  0  0  0  0  0
   11.7990   -1.8481    0.0000 C   0  0  0  0  0  0  0  0  0  0  0  0
   11.7990   -3.3481    0.0000 F   0  0  0  0  0  0  0  0  0  0  0  0
   11.7990   -0.3481    0.0000 F   0  0  0  0  0  0  0  0  0  0  0  0
   13.2990   -1.8481    0.0000 C   0  0  0  0  0  0  0  0  0  0  0  0
   13.2990   -0.3481    0.0000 F   0  0  0  0  0  0  0  0  0  0  0  0
   13.2990   -3.3481    0.0000 F   0  0  0  0  0  0  0  0  0  0  0  0
   14.7990   -1.8481    0.0000 C   0  0  0  0  0  0  0  0  0  0  0  0
   16.2990   -1.8481    0.0000 F   0  0  0  0  0  0  0  0  0  0  0  0
   14.7990   -3.3481    0.0000 F   0  0  0  0  0  0  0  0  0  0  0  0
   14.7990   -0.3481    0.0000 F   0  0  0  0  0  0  0  0  0  0  0  0
    0.5490    2.0490    0.0000 C   0  0  0  0  0  0  0  0  0  0  0  0
    1.2990    3.3481    0.0000 C   0  0  0  0  0  0  0  0  0  0  0  0
    2.7990    3.3481    0.0000 O   0  0  0  0  0  0  0  0  0  0  0  0
    0.5490    4.6471    0.0000 O   0  0  0  0  0  0  0  0  0  0  0  0
  1  2  1  0
  2  3  1  0
  2  4  1  0
  4  5  1  0
  5  6  1  0
  6  7  1  0
  7  8  1  0
  7  9  1  0
  7 10  1  0
 10 11  1  0
 10 12  1  0
 10 13  1  0
 13 14  1  0
 13 15  1  0
 13 16  1  0
 16 17  1  0
 16 18  1  0
 16 19  1  0
 19 20  1  0
 19 21  1  0
 19 22  1  0
 22 23  1  0
 22 24  1  0
 22 25  1  0
 25 26  1  0
 25 27  1  0
 25 28  1  0
  2 29  1  0
 29 30  1  0
 30 31  2  0
 30 32  1  0
M  CHG  2   2   1  32  -1
M  END
$$$$

     RDKit          2D

 31 30  0  0  0  0  0  0  0  0999 V2000
    6.4952   11.2500    0.0000 C   0  0  0  0  0  0  0  0  0  0  0  0
    6.4952    9.7500    0.0000 N   0  0  0  0  0  0  0  0  0  0  0  0
    7.7942    9.0000    0.0000 C   0  0  0  0  0  0  0  0  0  0  0  0
    5.1962    9.0000    0.0000 C   0  0  0  0  0  0  0  0  0  0  0  0
    5.1962    7.5000    0.0000 C   0  0  0  0  0  0  0  0  0  0  0  0
    3.8971    6.7500    0.0000 C   0  0  0  0  0  0  0  0  0  0  0  0
    3.8971    5.2500    0.0000 N   0  0  0  0  0  0  0  0  0  0  0  0
    2.5981    4.5000    0.0000 C   0  0  0  0  0  0  0  0  0  0  0  0
    2.5981    3.0000    0.0000 C   0  0  0  0  0  0  0  0  0  0  0  0
    1.2990    2.2500    0.0000 C   0  0  0  0  0  0  0  0  0  0  0  0
    0.0000    3.0000    0.0000 O   0  0  0  0  0  0  0  0  0  0  0  0
    1.2990    0.7500    0.0000 O   0  0  0  0  0  0  0  0  0  0  0  0
    5.1962    4.5000    0.0000 S   0  0  0  0  0  0  0  0  0  0  0  0
    5.9462    5.7990    0.0000 O   0  0  0  0  0  0  0  0  0  0  0  0
    4.7164    3.8634    0.0000 O   0  0  0  0  0  0  0  0  0  0  0  0
    6.4952    3.7500    0.0000 C   0  0  0  0  0  0  0  0  0  0  0  0
    7.2452    5.0490    0.0000 F   0  0  0  0  0  0  0  0  0  0  0  0
    7.7942    3.0000    0.0000 F   0  0  0  0  0  0  0  0  0  0  0  0
    5.7452    2.4510    0.0000 C   0  0  0  0  0  0  0  0  0  0  0  0
    7.0442    1.7010    0.0000 F   0  0  0  0  0  0  0  0  0  0  0  0
    4.9299    2.7970    0.0000 F   0  0  0  0  0  0  0  0  0  0  0  0
    4.9952    1.1519    0.0000 C   0  0  0  0  0  0  0  0  0  0  0  0
    6.2942    0.4019    0.0000 F   0  0  0  0  0  0  0  0  0  0  0  0
    3.6962    1.9019    0.0000 F   0  0  0  0  0  0  0  0  0  0  0  0
    4.2452   -0.1471    0.0000 C   0  0  0  0  0  0  0  0  0  0  0  0
    2.9462    0.6029    0.0000 F   0  0  0  0  0  0  0  0  0  0  0  0
    5.5442   -0.8971    0.0000 F   0  0  0  0  0  0  0  0  0  0  0  0
    3.4952   -1.4462    0.0000 C   0  0  0  0  0  0  0  0  0  0  0  0
    2.7452   -2.7452    0.0000 F   0  0  0  0  0  0  0  0  0  0  0  0
    2.1962   -0.6962    0.0000 F   0  0  0  0  0  0  0  0  0  0  0  0
    4.7942   -2.1962    0.0000 F   0  0  0  0  0  0  0  0  0  0  0  0
  1  2  1  0
  2  3  1  0
  2  4  1  0
  4  5  1  0
  5  6  1  0
  6  7  1  0
  7  8  1  0
  8  9  1  0
  9 10  1  0
 10 11  2  0
 10 12  1  0
  7 13  1  0
 13 14  2  0
 13 15  2  0
 13 16  1  0
 16 17  1  0
 16 18  1  0
 16 19  1  0
 19 20  1  0
 19 21  1  0
 19 22  1  0
 22 23  1  0
 22 24  1  0
 22 25  1  0
 25 26  1  0
 25 27  1  0
 25 28  1  0
 28 29  1  0
 28 30  1  0
 28 31  1  0
M  END
$$$$

     RDKit          2D

 32 31  0  0  0  0  0  0  0  0999 V2000
    0.0000    0.0000    0.0000 C   0  0  0  0  0  0  0  0  0  0  0  0
    1.2990    0.7500    0.0000 N   0  0  0  0  0  0  0  0  0  0  0  0
    2.5981    1.5000    0.0000 C   0  0  0  0  0  0  0  0  0  0  0  0
    2.0490   -0.5490    0.0000 C   0  0  0  0  0  0  0  0  0  0  0  0
    0.5490    2.0490    0.0000 C   0  0  0  0  0  0  0  0  0  0  0  0
    1.2990    3.3481    0.0000 C   0  0  0  0  0  0  0  0  0  0  0  0
    0.5490    4.6471    0.0000 C   0  0  0  0  0  0  0  0  0  0  0  0
    1.2990    5.9462    0.0000 N   0  0  0  0  0  0  0  0  0  0  0  0
    0.5490    7.2452    0.0000 C   0  0  0  0  0  0  0  0  0  0  0  0
   -0.9510    7.2452    0.0000 O   0  0  0  0  0  0  0  0  0  0  0  0
    1.2990    8.5442    0.0000 C   0  0  0  0  0  0  0  0  0  0  0  0
    0.0000    9.2942    0.0000 F   0  0  0  0  0  0  0  0  0  0  0  0
    2.5981    7.7942    0.0000 F   0  0  0  0  0  0  0  0  0  0  0  0
    2.0490    9.8433    0.0000 C   0  0  0  0  0  0  0  0  0  0  0  0
    3.3481    9.0933    0.0000 F   0  0  0  0  0  0  0  0  0  0  0  0
    0.7500   10.5933    0.0000 F   0  0  0  0  0  0  0  0  0  0  0  0
    2.7990   11.1423    0.0000 C   0  0  0  0  0  0  0  0  0  0  0  0
    1.5000   11.8923    0.0000 F   0  0  0  0  0  0  0  0  0  0  0  0
    4.0981   10.3923    0.0000 F   0  0  0  0  0  0  0  0  0  0  0  0
    3.5490   12.4413    0.0000 C   0  0  0  0  0  0  0  0  0  0  0  0
    4.8481   11.6913    0.0000 F   0  0  0  0  0  0  0  0  0  0  0  0
    2.2500   13.1913    0.0000 F   0  0  0  0  0  0  0  0  0  0  0  0
    4.2990   13.7404    0.0000 C   0  0  0  0  0  0  0  0  0  0  0  0
    3.0000   14.4904    0.0000 F   0  0  0  0  0  0  0  0  0  0  0  0
    5.5981   12.9904    0.0000 F   0  0  0  0  0  0  0  0  0  0  0  0
    5.0490   15.0394    0.0000 C   0  0  0  0  0  0  0  0  0  0  0  0
    6.3481   14.2894    0.0000 F   0  0  0  0  0  0  0  0  0  0  0  0
    3.7500   15.7894    0.0000 F   0  0  0  0  0  0  0  0  0  0  0  0
    5.7990   16.3385    0.0000 C   0  0  0  0  0  0  0  0  0  0  0  0
    6.5490   17.6375    0.0000 F   0  0  0  0  0  0  0  0  0  0  0  0
    4.5000   17.0885    0.0000 F   0  0  0  0  0  0  0  0  0  0  0  0
    7.0981   15.5885    0.0000 F   0  0  0  0  0  0  0  0  0  0  0  0
  1  2  1  0
  2  3  1  0
  2  4  1  0
  2  5  1  0
  5  6  1  0
  6  7  1  0
  7  8  1  0
  8  9  1  0
  9 10  2  0
  9 11  1  0
 11 12  1  0
 11 13  1  0
 11 14  1  0
 14 15  1  0
 14 16  1  0
 14 17  1  0
 17 18  1  0
 17 19  1  0
 17 20  1  0
 20 21  1  0
 20 22  1  0
 20 23  1  0
 23 24  1  0
 23 25  1  0
 23 26  1  0
 26 27  1  0
 26 28  1  0
 26 29  1  0
 29 30  1  0
 29 31  1  0
 29 32  1  0
M  CHG  1   2   1
M  END
$$$$

     RDKit          2D

 48 47  0  0  0  0  0  0  0  0999 V2000
    0.0000    0.0000    0.0000 C   0  0  0  0  0  0  0  0  0  0  0  0
    1.2990    0.7500    0.0000 N   0  0  0  0  0  0  0  0  0  0  0  0
    2.5981    1.5000    0.0000 C   0  0  0  0  0  0  0  0  0  0  0  0
    2.0490   -0.5490    0.0000 C   0  0  0  0  0  0  0  0  0  0  0  0
    3.5490   -0.5490    0.0000 C   0  0  0  0  0  0  0  0  0  0  0  0
    4.2990   -1.8481    0.0000 C   0  0  0  0  0  0  0  0  0  0  0  0
    5.7990   -1.8481    0.0000 N   0  0  0  0  0  0  0  0  0  0  0  0
    6.5490   -3.1471    0.0000 C   0  0  0  0  0  0  0  0  0  0  0  0
    5.7990   -4.4462    0.0000 O   0  0  0  0  0  0  0  0  0  0  0  0
    8.0490   -3.1471    0.0000 C   0  0  0  0  0  0  0  0  0  0  0  0
    8.7990   -4.4462    0.0000 S   0  0  0  0  0  0  0  0  0  0  0  0
   10.2990   -4.4462    0.0000 C   0  0  0  0  0  0  0  0  0  0  0  0
   11.0490   -5.7452    0.0000 C   0  0  0  0  0  0  0  0  0  0  0  0
   12.5490   -5.7452    0.0000 C   0  0  0  0  0  0  0  0  0  0  0  0
   12.5490   -7.2452    0.0000 F   0  0  0  0  0  0  0  0  0  0  0  0
   12.5490   -4.2452    0.0000 F   0  0  0  0  0  0  0  0  0  0  0  0
   14.0490   -5.7452    0.0000 C   0  0  0  0  0  0  0  0  0  0  0  0
   14.0490   -4.2452    0.0000 F   0  0  0  0  0  0  0  0  0  0  0  0
   14.0490   -7.2452    0.0000 F   0  0  0  0  0  0  0  0  0  0  0  0
   15.5490   -5.7452    0.0000 C   0  0  0  0  0  0  0  0  0  0  0  0
   15.5490   -7.2452    0.0000 F   0  0  0  0  0  0  0  0  0  0  0  0
   15.5490   -4.2452    0.0000 F   0  0  0  0  0  0  0  0  0  0  0  0
   17.0490   -5.7452    0.0000 C   0  0  0  0  0  0  0  0  0  0  0  0
   17.0490   -4.2452    0.0000 F   0  0  0  0  0  0  0  0  0  0  0  0
   17.0490   -7.2452    0.0000 F   0  0  0  0  0  0  0  0  0  0  0  0
   18.5490   -5.7452    0.0000 C   0  0  0  0  0  0  0  0  0  0  0  0
   18.5490   -7.2452    0.0000 F   0  0  0  0  0  0  0  0  0  0  0  0
   18.5490   -4.2452    0.0000 F   0  0  0  0  0  0  0  0  0  0  0  0
   20.0490   -5.7452    0.0000 C   0  0  0  0  0  0  0  0  0  0  0  0
   20.0490   -4.2452    0.0000 F   0  0  0  0  0  0  0  0  0  0  0  0
   20.0490   -7.2452    0.0000 F   0  0  0  0  0  0  0  0  0  0  0  0
   21.5490   -5.7452    0.0000 C   0  0  0  0  0  0  0  0  0  0  0  0
   21.5490   -7.2452    0.0000 F   0  0  0  0  0  0  0  0  0  0  0  0
   21.5490   -4.2452    0.0000 F   0  0  0  0  0  0  0  0  0  0  0  0
   23.0490   -5.7452    0.0000 C   0  0  0  0  0  0  0  0  0  0  0  0
   23.0490   -4.2452    0.0000 F   0  0  0  0  0  0  0  0  0  0  0  0
   23.0490   -7.2452    0.0000 F   0  0  0  0  0  0  0  0  0  0  0  0
   24.5490   -5.7452    0.0000 C   0  0  0  0  0  0  0  0  0  0  0  0
   24.5490   -7.2452    0.0000 F   0  0  0  0  0  0  0  0  0  0  0  0
   24.5490   -4.2452    0.0000 F   0  0  0  0  0  0  0  0  0  0  0  0
   26.0490   -5.7452    0.0000 C   0  0  0  0  0  0  0  0  0  0  0  0
   27.5490   -5.7452    0.0000 F   0  0  0  0  0  0  0  0  0  0  0  0
   26.0490   -4.2452    0.0000 F   0  0  0  0  0  0  0  0  0  0  0  0
   26.0490   -7.2452    0.0000 F   0  0  0  0  0  0  0  0  0  0  0  0
    0.5490    2.0490    0.0000 C   0  0  0  0  0  0  0  0  0  0  0  0
    1.2990    3.3481    0.0000 C   0  0  0  0  0  0  0  0  0  0  0  0
    2.7990    3.3481    0.0000 O   0  0  0  0  0  0  0  0  0  0  0  0
    0.5490    4.6471    0.0000 O   0  0  0  0  0  0  0  0  0  0  0  0
  1  2  1  0
  2  3  1  0
  2  4  1  0
  4  5  1  0
  5  6  1  0
  6  7  1  0
  7  8  1  0
  8  9  2  0
  8 10  1  0
 10 11  1  0
 11 12  1  0
 12 13  1  0
 13 14  1  0
 14 15  1  0
 14 16  1  0
 14 17  1  0
 17 18  1  0
 17 19  1  0
 17 20  1  0
 20 21  1  0
 20 22  1  0
 20 23  1  0
 23 24  1  0
 23 25  1  0
 23 26  1  0
 26 27  1  0
 26 28  1  0
 26 29  1  0
 29 30  1  0
 29 31  1  0
 29 32  1  0
 32 33  1  0
 32 34  1  0
 32 35  1  0
 35 36  1  0
 35 37  1  0
 35 38  1  0
 38 39  1  0
 38 40  1  0
 38 41  1  0
 41 42  1  0
 41 43  1  0
 41 44  1  0
  2 45  1  0
 45 46  1  0
 46 47  2  0
 46 48  1  0
M  CHG  2   2   1  48  -1
M  END
$$$$

     RDKit          2D

 37 36  0  0  0  0  0  0  0  0999 V2000
    0.0000    0.0000    0.0000 C   0  0  0  0  0  0  0  0  0  0  0  0
    1.2990    0.7500    0.0000 N   0  0  0  0  0  0  0  0  0  0  0  0
    2.5981    1.5000    0.0000 C   0  0  0  0  0  0  0  0  0  0  0  0
    2.0490   -0.5490    0.0000 C   0  0  0  0  0  0  0  0  0  0  0  0
    0.5490    2.0490    0.0000 C   0  0  0  0  0  0  0  0  0  0  0  0
    1.2990    3.3481    0.0000 C   0  0  0  0  0  0  0  0  0  0  0  0
    2.7990    3.3481    0.0000 O   0  0  0  0  0  0  0  0  0  0  0  0
    0.5490    4.6471    0.0000 C   0  0  0  0  0  0  0  0  0  0  0  0
    1.2990    5.9462    0.0000 S   0  0  0  0  0  0  0  0  0  0  0  0
    2.7990    5.9462    0.0000 O   0  0  0  0  0  0  0  0  0  0  0  0
    0.5490    7.2452    0.0000 C   0  0  0  0  0  0  0  0  0  0  0  0
    1.2990    8.5442    0.0000 C   0  0  0  0  0  0  0  0  0  0  0  0
    0.5490    9.8433    0.0000 C   0  0  0  0  0  0  0  0  0  0  0  0
    1.8481   10.5933    0.0000 F   0  0  0  0  0  0  0  0  0  0  0  0
   -0.7500    9.0933    0.0000 F   0  0  0  0  0  0  0  0  0  0  0  0
   -0.2010   11.1423    0.0000 C   0  0  0  0  0  0  0  0  0  0  0  0
   -1.5000   10.3923    0.0000 F   0  0  0  0  0  0  0  0  0  0  0  0
    1.0981   11.8923    0.0000 F   0  0  0  0  0  0  0  0  0  0  0  0
   -0.9510   12.4413    0.0000 C   0  0  0  0  0  0  0  0  0  0  0  0
    0.3481   13.1913    0.0000 F   0  0  0  0  0  0  0  0  0  0  0  0
   -2.2500   11.6913    0.0000 F   0  0  0  0  0  0  0  0  0  0  0  0
   -1.7010   13.7404    0.0000 C   0  0  0  0  0  0  0  0  0  0  0  0
   -3.0000   12.9904    0.0000 F   0  0  0  0  0  0  0  0  0  0  0  0
   -0.4019   14.4904    0.0000 F   0  0  0  0  0  0  0  0  0  0  0  0
   -2.4510   15.0394    0.0000 C   0  0  0  0  0  0  0  0  0  0  0  0
   -1.1519   15.7894    0.0000 F   0  0  0  0  0  0  0  0  0  0  0  0
   -3.7500   14.2894    0.0000 F   0  0  0  0  0  0  0  0  0  0  0  0
   -3.2010   16.3385    0.0000 C   0  0  0  0  0  0  0  0  0  0  0  0
   -4.5000   15.5885    0.0000 F   0  0  0  0  0  0  0  0  0  0  0  0
   -1.9019   17.0885    0.0000 F   0  0  0  0  0  0  0  0  0  0  0  0
   -3.9510   17.6375    0.0000 C   0  0  0  0  0  0  0  0  0  0  0  0
   -2.6519   18.3875    0.0000 F   0  0  0  0  0  0  0  0  0  0  0  0
   -5.2500   16.8875    0.0000 F   0  0  0  0  0  0  0  0  0  0  0  0
   -4.7010   18.9365    0.0000 C   0  0  0  0  0  0  0  0  0  0  0  0
   -5.4510   20.2356    0.0000 F   0  0  0  0  0  0  0  0  0  0  0  0
   -6.0000   18.1865    0.0000 F   0  0  0  0  0  0  0  0  0  0  0  0
   -3.4019   19.6865    0.0000 F   0  0  0  0  0  0  0  0  0  0  0  0
  1  2  1  0
  2  3  1  0
  2  4  1  0
  2  5  1  0
  5  6  1  0
  6  7  1  0
  6  8  1  0
  8  9  1  0
  9 10  2  0
  9 11  1  0
 11 12  1  0
 12 13  1  0
 13 14  1  0
 13 15  1  0
 13 16  1  0
 16 17  1  0
 16 18  1  0
 16 19  1  0
 19 20  1  0
 19 21  1  0
 19 22  1  0
 22 23  1  0
 22 24  1  0
 22 25  1  0
 25 26  1  0
 25 27  1  0
 25 28  1  0
 28 29  1  0
 28 30  1  0
 28 31  1  0
 31 32  1  0
 31 33  1  0
 31 34  1  0
 34 35  1  0
 34 36  1  0
 34 37  1  0
M  CHG  2   2   1   7  -1
M  END
$$$$

     RDKit          2D

 37 35  0  0  0  0  0  0  0  0999 V2000
    0.0000    0.0000    0.0000 C   0  0  0  0  0  0  0  0  0  0  0  0
    1.2990    0.7500    0.0000 N   0  0  0  0  0  0  0  0  0  0  0  0
    2.5981    1.5000    0.0000 C   0  0  0  0  0  0  0  0  0  0  0  0
    2.0490   -0.5490    0.0000 C   0  0  0  0  0  0  0  0  0  0  0  0
    0.5490    2.0490    0.0000 C   0  0  0  0  0  0  0  0  0  0  0  0
    1.2990    3.3481    0.0000 C   0  0  0  0  0  0  0  0  0  0  0  0
    2.7990    3.3481    0.0000 O   0  0  0  0  0  0  0  0  0  0  0  0
    0.5490    4.6471    0.0000 C   0  0  0  0  0  0  0  0  0  0  0  0
    1.2990    5.9462    0.0000 S   0  0  0  0  0  0  0  0  0  0  0  0
    0.5490    7.2452    0.0000 C   0  0  0  0  0  0  0  0  0  0  0  0
    1.2990    8.5442    0.0000 C   0  0  0  0  0  0  0  0  0  0  0  0
    0.5490    9.8433    0.0000 C   0  0  0  0  0  0  0  0  0  0  0  0
    1.8481   10.5933    0.0000 F   0  0  0  0  0  0  0  0  0  0  0  0
   -0.7500    9.0933    0.0000 F   0  0  0  0  0  0  0  0  0  0  0  0
   -0.2010   11.1423    0.0000 C   0  0  0  0  0  0  0  0  0  0  0  0
   -1.5000   10.3923    0.0000 F   0  0  0  0  0  0  0  0  0  0  0  0
    1.0981   11.8923    0.0000 F   0  0  0  0  0  0  0  0  0  0  0  0
   -0.9510   12.4413    0.0000 C   0  0  0  0  0  0  0  0  0  0  0  0
    0.3481   13.1913    0.0000 F   0  0  0  0  0  0  0  0  0  0  0  0
   -2.2500   11.6913    0.0000 F   0  0  0  0  0  0  0  0  0  0  0  0
   -1.7010   13.7404    0.0000 C   0  0  0  0  0  0  0  0  0  0  0  0
   -3.0000   12.9904    0.0000 F   0  0  0  0  0  0  0  0  0  0  0  0
   -0.4019   14.4904    0.0000 F   0  0  0  0  0  0  0  0  0  0  0  0
   -2.4510   15.0394    0.0000 C   0  0  0  0  0  0  0  0  0  0  0  0
   -1.1519   15.7894    0.0000 F   0  0  0  0  0  0  0  0  0  0  0  0
   -3.7500   14.2894    0.0000 F   0  0  0  0  0  0  0  0  0  0  0  0
   -3.2010   16.3385    0.0000 C   0  0  0  0  0  0  0  0  0  0  0  0
   -4.5000   15.5885    0.0000 F   0  0  0  0  0  0  0  0  0  0  0  0
   -1.9019   17.0885    0.0000 F   0  0  0  0  0  0  0  0  0  0  0  0
   -3.9510   17.6375    0.0000 C   0  0  0  0  0  0  0  0  0  0  0  0
   -2.6519   18.3875    0.0000 F   0  0  0  0  0  0  0  0  0  0  0  0
   -5.2500   16.8875    0.0000 F   0  0  0  0  0  0  0  0  0  0  0  0
   -4.7010   18.9365    0.0000 C   0  0  0  0  0  0  0  0  0  0  0  0
   -5.4510   20.2356    0.0000 F   0  0  0  0  0  0  0  0  0  0  0  0
   -6.0000   18.1865    0.0000 F   0  0  0  0  0  0  0  0  0  0  0  0
   -3.4019   19.6865    0.0000 F   0  0  0  0  0  0  0  0  0  0  0  0
    3.7990    0.0000    0.0000 Cl  0  0  0  0  0  0  0  0  0  0  0  0
  1  2  1  0
  2  3  1  0
  2  4  1  0
  2  5  1  0
  5  6  1  0
  6  7  1  0
  6  8  1  0
  8  9  1  0
  9 10  1  0
 10 11  1  0
 11 12  1  0
 12 13  1  0
 12 14  1  0
 12 15  1  0
 15 16  1  0
 15 17  1  0
 15 18  1  0
 18 19  1  0
 18 20  1  0
 18 21  1  0
 21 22  1  0
 21 23  1  0
 21 24  1  0
 24 25  1  0
 24 26  1  0
 24 27  1  0
 27 28  1  0
 27 29  1  0
 27 30  1  0
 30 31  1  0
 30 32  1  0
 30 33  1  0
 33 34  1  0
 33 35  1  0
 33 36  1  0
M  CHG  2   2   1  37  -1
M  END
$$$$

     RDKit          2D

 36 35  0  0  0  0  0  0  0  0999 V2000
    0.0000    0.0000    0.0000 C   0  0  0  0  0  0  0  0  0  0  0  0
    1.2990    0.7500    0.0000 N   0  0  0  0  0  0  0  0  0  0  0  0
    2.5981   -0.0000    0.0000 C   0  0  0  0  0  0  0  0  0  0  0  0
    3.8971    0.7500    0.0000 C   0  0  0  0  0  0  0  0  0  0  0  0
    5.1962   -0.0000    0.0000 C   0  0  0  0  0  0  0  0  0  0  0  0
    6.4952    0.7500    0.0000 N   0  0  0  0  0  0  0  0  0  0  0  0
    7.7942   -0.0000    0.0000 S   0  0  0  0  0  0  0  0  0  0  0  0
    7.0442   -1.2990    0.0000 O   0  0  0  0  0  0  0  0  0  0  0  0
    8.5442    1.2990    0.0000 O   0  0  0  0  0  0  0  0  0  0  0  0
    9.0933   -0.7500    0.0000 C   0  0  0  0  0  0  0  0  0  0  0  0
    9.0933   -2.2500    0.0000 C   0  0  0  0  0  0  0  0  0  0  0  0
   10.3923   -3.0000    0.0000 C   0  0  0  0  0  0  0  0  0  0  0  0
    9.6423   -4.2990    0.0000 F   0  0  0  0  0  0  0  0  0  0  0  0
   11.1423   -1.7010    0.0000 F   0  0  0  0  0  0  0  0  0  0  0  0
   11.6913   -3.7500    0.0000 C   0  0  0  0  0  0  0  0  0  0  0  0
   12.4413   -2.4510    0.0000 F   0  0  0  0  0  0  0  0  0  0  0  0
   10.9413   -5.0490    0.0000 F   0  0  0  0  0  0  0  0  0  0  0  0
   12.9904   -4.5000    0.0000 C   0  0  0  0  0  0  0  0  0  0  0  0
   12.2404   -5.7990    0.0000 F   0  0  0  0  0  0  0  0  0  0  0  0
   13.7404   -3.2010    0.0000 F   0  0  0  0  0  0  0  0  0  0  0  0
   14.2894   -5.2500    0.0000 C   0  0  0  0  0  0  0  0  0  0  0  0
   15.0394   -3.9510    0.0000 F   0  0  0  0  0  0  0  0  0  0  0  0
   13.5394   -6.5490    0.0000 F   0  0  0  0  0  0  0  0  0  0  0  0
   15.5885   -6.0000    0.0000 C   0  0  0  0  0  0  0  0  0  0  0  0
   14.8385   -7.2990    0.0000 F   0  0  0  0  0  0  0  0  0  0  0  0
   16.3385   -4.7010    0.0000 F   0  0  0  0  0  0  0  0  0  0  0  0
   16.8875   -6.7500    0.0000 C   0  0  0  0  0  0  0  0  0  0  0  0
   17.6375   -5.4510    0.0000 F   0  0  0  0  0  0  0  0  0  0  0  0
   16.1375   -8.0490    0.0000 F   0  0  0  0  0  0  0  0  0  0  0  0
   18.1865   -7.5000    0.0000 C   0  0  0  0  0  0  0  0  0  0  0  0
   17.4365   -8.7990    0.0000 F   0  0  0  0  0  0  0  0  0  0  0  0
   18.9365   -6.2010    0.0000 F   0  0  0  0  0  0  0  0  0  0  0  0
   19.4856   -8.2500    0.0000 C   0  0  0  0  0  0  0  0  0  0  0  0
   20.7846   -9.0000    0.0000 F   0  0  0  0  0  0  0  0  0  0  0  0
   20.2356   -6.9510    0.0000 F   0  0  0  0  0  0  0  0  0  0  0  0
   18.7356   -9.5490    0.0000 F   0  0  0  0  0  0  0  0  0  0  0  0
  1  2  1  0
  2  3  1  0
  3  4  1  0
  4  5  1  0
  5  6  1  0
  6  7  1  0
  7  8  2  0
  7  9  2  0
  7 10  1  0
 10 11  1  0
 11 12  1  0
 12 13  1  0
 12 14  1  0
 12 15  1  0
 15 16  1  0
 15 17  1  0
 15 18  1  0
 18 19  1  0
 18 20  1  0
 18 21  1  0
 21 22  1  0
 21 23  1  0
 21 24  1  0
 24 25  1  0
 24 26  1  0
 24 27  1  0
 27 28  1  0
 27 29  1  0
 27 30  1  0
 30 31  1  0
 30 32  1  0
 30 33  1  0
 33 34  1  0
 33 35  1  0
 33 36  1  0
M  END
$$$$

     RDKit          2D

 45 44  0  0  0  0  0  0  0  0999 V2000
    0.0000    0.0000    0.0000 C   0  0  0  0  0  0  0  0  0  0  0  0
    1.2990    0.7500    0.0000 N   0  0  0  0  0  0  0  0  0  0  0  0
    2.5981    1.5000    0.0000 C   0  0  0  0  0  0  0  0  0  0  0  0
    2.0490   -0.5490    0.0000 C   0  0  0  0  0  0  0  0  0  0  0  0
    3.5490   -0.5490    0.0000 C   0  0  0  0  0  0  0  0  0  0  0  0
    4.2990   -1.8481    0.0000 C   0  0  0  0  0  0  0  0  0  0  0  0
    3.5490   -3.1471    0.0000 F   0  0  0  0  0  0  0  0  0  0  0  0
    5.7990   -1.8481    0.0000 C   0  0  0  0  0  0  0  0  0  0  0  0
    5.7990   -3.3481    0.0000 F   0  0  0  0  0  0  0  0  0  0  0  0
    5.7990   -0.3481    0.0000 F   0  0  0  0  0  0  0  0  0  0  0  0
    7.2990   -1.8481    0.0000 C   0  0  0  0  0  0  0  0  0  0  0  0
    7.2990   -0.3481    0.0000 F   0  0  0  0  0  0  0  0  0  0  0  0
    7.2990   -3.3481    0.0000 F   0  0  0  0  0  0  0  0  0  0  0  0
    8.7990   -1.8481    0.0000 C   0  0  0  0  0  0  0  0  0  0  0  0
    8.7990   -3.3481    0.0000 F   0  0  0  0  0  0  0  0  0  0  0  0
    8.7990   -0.3481    0.0000 F   0  0  0  0  0  0  0  0  0  0  0  0
   10.2990   -1.8481    0.0000 C   0  0  0  0  0  0  0  0  0  0  0  0
   10.2990   -0.3481    0.0000 F   0  0  0  0  0  0  0  0  0  0  0  0
   10.2990   -3.3481    0.0000 F   0  0  0  0  0  0  0  0  0  0  0  0
   11.7990   -1.8481    0.0000 C   0  0  0  0  0  0  0  0  0  0  0  0
   11.7990   -3.3481    0.0000 F   0  0  0  0  0  0  0  0  0  0  0  0
   11.7990   -0.3481    0.0000 F   0  0  0  0  0  0  0  0  0  0  0  0
   13.2990   -1.8481    0.0000 C   0  0  0  0  0  0  0  0  0  0  0  0
   13.2990   -0.3481    0.0000 F   0  0  0  0  0  0  0  0  0  0  0  0
   13.2990   -3.3481    0.0000 F   0  0  0  0  0  0  0  0  0  0  0  0
   14.7990   -1.8481    0.0000 C   0  0  0  0  0  0  0  0  0  0  0  0
   14.7990   -3.3481    0.0000 F   0  0  0  0  0  0  0  0  0  0  0  0
   14.7990   -0.3481    0.0000 F   0  0  0  0  0  0  0  0  0  0  0  0
   16.2990   -1.8481    0.0000 C   0  0  0  0  0  0  0  0  0  0  0  0
   16.2990   -0.3481    0.0000 F   0  0  0  0  0  0  0  0  0  0  0  0
   16.2990   -3.3481    0.0000 F   0  0  0  0  0  0  0  0  0  0  0  0
   17.7990   -1.8481    0.0000 C   0  0  0  0  0  0  0  0  0  0  0  0
   17.7990   -3.3481    0.0000 F   0  0  0  0  0  0  0  0  0  0  0  0
   17.7990   -0.3481    0.0000 F   0  0  0  0  0  0  0  0  0  0  0  0
   19.2990   -1.8481    0.0000 C   0  0  0  0  0  0  0  0  0  0  0  0
   19.2990   -0.3481    0.0000 F   0  0  0  0  0  0  0  0  0  0  0  0
   19.2990   -3.3481    0.0000 F   0  0  0  0  0  0  0  0  0  0  0  0
   20.7990   -1.8481    0.0000 C   0  0  0  0  0  0  0  0  0  0  0  0
   22.2990   -1.8481    0.0000 F   0  0  0  0  0  0  0  0  0  0  0  0
   20.7990   -3.3481    0.0000 F   0  0  0  0  0  0  0  0  0  0  0  0
   20.7990   -0.3481    0.0000 F   0  0  0  0  0  0  0  0  0  0  0  0
    0.5490    2.0490    0.0000 C   0  0  0  0  0  0  0  0  0  0  0  0
    1.2990    3.3481    0.0000 C   0  0  0  0  0  0  0  0  0  0  0  0
    2.7990    3.3481    0.0000 O   0  0  0  0  0  0  0  0  0  0  0  0
    0.5490    4.6471    0.0000 O   0  0  0  0  0  0  0  0  0  0  0  0
  1  2  1  0
  2  3  1  0
  2  4  1  0
  4  5  1  0
  5  6  1  0
  6  7  1  0
  6  8  1  0
  8  9  1  0
  8 10  1  0
  8 11  1  0
 11 12  1  0
 11 13  1  0
 11 14  1  0
 14 15  1  0
 14 16  1  0
 14 17  1  0
 17 18  1  0
 17 19  1  0
 17 20  1  0
 20 21  1  0
 20 22  1  0
 20 23  1  0
 23 24  1  0
 23 25  1  0
 23 26  1  0
 26 27  1  0
 26 28  1  0
 26 29  1  0
 29 30  1  0
 29 31  1  0
 29 32  1  0
 32 33  1  0
 32 34  1  0
 32 35  1  0
 35 36  1  0
 35 37  1  0
 35 38  1  0
 38 39  1  0
 38 40  1  0
 38 41  1  0
  2 42  1  0
 42 43  1  0
 43 44  2  0
 43 45  1  0
M  CHG  1   2   1
M  END
$$$$

     RDKit          2D

 44 43  0  0  0  0  0  0  0  0999 V2000
   -2.5981    0.0000    0.0000 H   0  0  0  0  0  0  0  0  0  0  0  0
   -1.2990    0.7500    0.0000 O   0  0  0  0  0  0  0  0  0  0  0  0
    0.0000    0.0000    0.0000 C   0  0  0  0  0  0  0  0  0  0  0  0
   -0.0000   -1.5000    0.0000 O   0  0  0  0  0  0  0  0  0  0  0  0
    1.2990    0.7500    0.0000 C   0  0  0  0  0  0  0  0  0  0  0  0
    2.0490   -0.5490    0.0000 F   0  0  0  0  0  0  0  0  0  0  0  0
    0.5490    2.0490    0.0000 F   0  0  0  0  0  0  0  0  0  0  0  0
    2.5981    1.5000    0.0000 C   0  0  0  0  0  0  0  0  0  0  0  0
    1.8481    2.7990    0.0000 F   0  0  0  0  0  0  0  0  0  0  0  0
    3.3481    0.2010    0.0000 F   0  0  0  0  0  0  0  0  0  0  0  0
    3.8971    2.2500    0.0000 C   0  0  0  0  0  0  0  0  0  0  0  0
    4.6471    0.9510    0.0000 F   0  0  0  0  0  0  0  0  0  0  0  0
    3.1471    3.5490    0.0000 F   0  0  0  0  0  0  0  0  0  0  0  0
    5.1962    3.0000    0.0000 C   0  0  0  0  0  0  0  0  0  0  0  0
    4.4462    4.2990    0.0000 F   0  0  0  0  0  0  0  0  0  0  0  0
    5.9462    1.7010    0.0000 F   0  0  0  0  0  0  0  0  0  0  0  0
    6.4952    3.7500    0.0000 C   0  0  0  0  0  0  0  0  0  0  0  0
    7.2452    2.4510    0.0000 F   0  0  0  0  0  0  0  0  0  0  0  0
    5.7452    5.0490    0.0000 F   0  0  0  0  0  0  0  0  0  0  0  0
    7.7942    4.5000    0.0000 C   0  0  0  0  0  0  0  0  0  0  0  0
    7.0442    5.7990    0.0000 F   0  0  0  0  0  0  0  0  0  0  0  0
    8.5442    3.2010    0.0000 F   0  0  0  0  0  0  0  0  0  0  0  0
    9.0933    5.2500    0.0000 C   0  0  0  0  0  0  0  0  0  0  0  0
    9.8433    3.9510    0.0000 F   0  0  0  0  0  0  0  0  0  0  0  0
    8.3433    6.5490    0.0000 F   0  0  0  0  0  0  0  0  0  0  0  0
   10.3923    6.0000    0.0000 C   0  0  0  0  0  0  0  0  0  0  0  0
    9.6423    7.2990    0.0000 F   0  0  0  0  0  0  0  0  0  0  0  0
   11.1423    4.7010    0.0000 F   0  0  0  0  0  0  0  0  0  0  0  0
   11.6913    6.7500    0.0000 C   0  0  0  0  0  0  0  0  0  0  0  0
   12.4413    5.4510    0.0000 F   0  0  0  0  0  0  0  0  0  0  0  0
   10.9413    8.0490    0.0000 F   0  0  0  0  0  0  0  0  0  0  0  0
   12.9904    7.5000    0.0000 C   0  0  0  0  0  0  0  0  0  0  0  0
   12.2404    8.7990    0.0000 F   0  0  0  0  0  0  0  0  0  0  0  0
   13.7404    6.2010    0.0000 F   0  0  0  0  0  0  0  0  0  0  0  0
   14.2894    8.2500    0.0000 C   0  0  0  0  0  0  0  0  0  0  0  0
   15.0394    6.9510    0.0000 F   0  0  0  0  0  0  0  0  0  0  0  0
   13.5394    9.5490    0.0000 F   0  0  0  0  0  0  0  0  0  0  0  0
   15.5885    9.0000    0.0000 C   0  0  0  0  0  0  0  0  0  0  0  0
   14.8385   10.2990    0.0000 F   0  0  0  0  0  0  0  0  0  0  0  0
   16.3385    7.7010    0.0000 F   0  0  0  0  0  0  0  0  0  0  0  0
   16.8875    9.7500    0.0000 C   0  0  0  0  0  0  0  0  0  0  0  0
   18.1865   10.5000    0.0000 F   0  0  0  0  0  0  0  0  0  0  0  0
   17.6375    8.4510    0.0000 F   0  0  0  0  0  0  0  0  0  0  0  0
   16.1375   11.0490    0.0000 F   0  0  0  0  0  0  0  0  0  0  0  0
  1  2  1  0
  2  3  1  0
  3  4  2  0
  3  5  1  0
  5  6  1  0
  5  7  1  0
  5  8  1  0
  8  9  1  0
  8 10  1  0
  8 11  1  0
 11 12  1  0
 11 13  1  0
 11 14  1  0
 14 15  1  0
 14 16  1  0
 14 17  1  0
 17 18  1  0
 17 19  1  0
 17 20  1  0
 20 21  1  0
 20 22  1  0
 20 23  1  0
 23 24  1  0
 23 25  1  0
 23 26  1  0
 26 27  1  0
 26 28  1  0
 26 29  1  0
 29 30  1  0
 29 31  1  0
 29 32  1  0
 32 33  1  0
 32 34  1  0
 32 35  1  0
 35 36  1  0
 35 37  1  0
 35 38  1  0
 38 39  1  0
 38 40  1  0
 38 41  1  0
 41 42  1  0
 41 43  1  0
 41 44  1  0
M  ISO  1   1   2
M  END
$$$$

     RDKit          2D

 19 18  0  0  0  0  0  0  0  0999 V2000
   -0.0000   -1.5000    0.0000 O   0  0  0  0  0  0  0  0  0  0  0  0
    0.0000    0.0000    0.0000 C   0  0  0  0  0  0  0  0  0  0  0  0
   -1.2990    0.7500    0.0000 O   0  0  0  0  0  0  0  0  0  0  0  0
    1.2990    0.7500    0.0000 C   0  0  0  0  0  0  0  0  0  0  0  0
    2.0490   -0.5490    0.0000 F   0  0  0  0  0  0  0  0  0  0  0  0
    0.5490    2.0490    0.0000 F   0  0  0  0  0  0  0  0  0  0  0  0
    2.5981    1.5000    0.0000 C   0  0  0  0  0  0  0  0  0  0  0  0
    1.8481    2.7990    0.0000 F   0  0  0  0  0  0  0  0  0  0  0  0
    3.3481    0.2010    0.0000 F   0  0  0  0  0  0  0  0  0  0  0  0
    3.8971    2.2500    0.0000 C   0  0  0  0  0  0  0  0  0  0  0  0
    4.6471    0.9510    0.0000 F   0  0  0  0  0  0  0  0  0  0  0  0
    3.1471    3.5490    0.0000 F   0  0  0  0  0  0  0  0  0  0  0  0
    5.1962    3.0000    0.0000 C   0  0  0  0  0  0  0  0  0  0  0  0
    4.4462    4.2990    0.0000 F   0  0  0  0  0  0  0  0  0  0  0  0
    5.9462    1.7010    0.0000 F   0  0  0  0  0  0  0  0  0  0  0  0
    6.4952    3.7500    0.0000 C   0  0  0  0  0  0  0  0  0  0  0  0
    7.7942    4.5000    0.0000 F   0  0  0  0  0  0  0  0  0  0  0  0
    7.2452    2.4510    0.0000 F   0  0  0  0  0  0  0  0  0  0  0  0
    5.7452    5.0490    0.0000 Cl  0  0  0  0  0  0  0  0  0  0  0  0
  1  2  2  0
  2  3  1  0
  2  4  1  0
  4  5  1  0
  4  6  1  0
  4  7  1  0
  7  8  1  0
  7  9  1  0
  7 10  1  0
 10 11  1  0
 10 12  1  0
 10 13  1  0
 13 14  1  0
 13 15  1  0
 13 16  1  0
 16 17  1  0
 16 18  1  0
 16 19  1  0
M  END
$$$$

     RDKit          2D

 34 33  0  0  0  0  0  0  0  0999 V2000
   -0.0000   -1.5000    0.0000 O   0  0  0  0  0  0  0  0  0  0  0  0
    0.0000    0.0000    0.0000 C   0  0  0  0  0  0  0  0  0  0  0  0
   -1.2990    0.7500    0.0000 O   0  0  0  0  0  0  0  0  0  0  0  0
    1.2990    0.7500    0.0000 C   0  0  0  0  0  0  0  0  0  0  0  0
    2.0490   -0.5490    0.0000 F   0  0  0  0  0  0  0  0  0  0  0  0
    0.5490    2.0490    0.0000 F   0  0  0  0  0  0  0  0  0  0  0  0
    2.5981    1.5000    0.0000 C   0  0  0  0  0  0  0  0  0  0  0  0
    1.8481    2.7990    0.0000 F   0  0  0  0  0  0  0  0  0  0  0  0
    3.3481    0.2010    0.0000 F   0  0  0  0  0  0  0  0  0  0  0  0
    3.8971    2.2500    0.0000 C   0  0  0  0  0  0  0  0  0  0  0  0
    4.6471    0.9510    0.0000 F   0  0  0  0  0  0  0  0  0  0  0  0
    3.1471    3.5490    0.0000 F   0  0  0  0  0  0  0  0  0  0  0  0
    5.1962    3.0000    0.0000 C   0  0  0  0  0  0  0  0  0  0  0  0
    4.4462    4.2990    0.0000 F   0  0  0  0  0  0  0  0  0  0  0  0
    5.9462    1.7010    0.0000 F   0  0  0  0  0  0  0  0  0  0  0  0
    6.4952    3.7500    0.0000 C   0  0  0  0  0  0  0  0  0  0  0  0
    7.2452    2.4510    0.0000 F   0  0  0  0  0  0  0  0  0  0  0  0
    5.7452    5.0490    0.0000 F   0  0  0  0  0  0  0  0  0  0  0  0
    7.7942    4.5000    0.0000 C   0  0  0  0  0  0  0  0  0  0  0  0
    7.0442    5.7990    0.0000 F   0  0  0  0  0  0  0  0  0  0  0  0
    8.5442    3.2010    0.0000 F   0  0  0  0  0  0  0  0  0  0  0  0
    9.0933    5.2500    0.0000 C   0  0  0  0  0  0  0  0  0  0  0  0
    9.8433    3.9510    0.0000 F   0  0  0  0  0  0  0  0  0  0  0  0
    8.3433    6.5490    0.0000 F   0  0  0  0  0  0  0  0  0  0  0  0
   10.3923    6.0000    0.0000 C   0  0  0  0  0  0  0  0  0  0  0  0
    9.6423    7.2990    0.0000 F   0  0  0  0  0  0  0  0  0  0  0  0
   11.1423    4.7010    0.0000 F   0  0  0  0  0  0  0  0  0  0  0  0
   11.6913    6.7500    0.0000 C   0  0  0  0  0  0  0  0  0  0  0  0
   12.4413    5.4510    0.0000 F   0  0  0  0  0  0  0  0  0  0  0  0
   10.9413    8.0490    0.0000 F   0  0  0  0  0  0  0  0  0  0  0  0
   12.9904    7.5000    0.0000 C   0  0  0  0  0  0  0  0  0  0  0  0
   14.2894    8.2500    0.0000 F   0  0  0  0  0  0  0  0  0  0  0  0
   12.2404    8.7990    0.0000 F   0  0  0  0  0  0  0  0  0  0  0  0
   13.7404    6.2010    0.0000 Cl  0  0  0  0  0  0  0  0  0  0  0  0
  1  2  2  0
  2  3  1  0
  2  4  1  0
  4  5  1  0
  4  6  1  0
  4  7  1  0
  7  8  1  0
  7  9  1  0
  7 10  1  0
 10 11  1  0
 10 12  1  0
 10 13  1  0
 13 14  1  0
 13 15  1  0
 13 16  1  0
 16 17  1  0
 16 18  1  0
 16 19  1  0
 19 20  1  0
 19 21  1  0
 19 22  1  0
 22 23  1  0
 22 24  1  0
 22 25  1  0
 25 26  1  0
 25 27  1  0
 25 28  1  0
 28 29  1  0
 28 30  1  0
 28 31  1  0
 31 32  1  0
 31 33  1  0
 31 34  1  0
M  END
$$$$

     RDKit          2D

 45 44  0  0  0  0  0  0  0  0999 V2000
   -0.0000   -1.5000    0.0000 O   0  0  0  0  0  0  0  0  0  0  0  0
    0.0000    0.0000    0.0000 C   0  0  0  0  0  0  0  0  0  0  0  0
   -1.2990    0.7500    0.0000 O   0  0  0  0  0  0  0  0  0  0  0  0
    1.2990    0.7500    0.0000 C   0  0  0  0  0  0  0  0  0  0  0  0
    2.0490   -0.5490    0.0000 F   0  0  0  0  0  0  0  0  0  0  0  0
    0.5490    2.0490    0.0000 F   0  0  0  0  0  0  0  0  0  0  0  0
    2.5981    1.5000    0.0000 C   0  0  0  0  0  0  0  0  0  0  0  0
    1.8481    2.7990    0.0000 F   0  0  0  0  0  0  0  0  0  0  0  0
    3.3481    0.2010    0.0000 F   0  0  0  0  0  0  0  0  0  0  0  0
    3.8971    2.2500    0.0000 C   0  0  0  0  0  0  0  0  0  0  0  0
    4.6471    0.9510    0.0000 F   0  0  0  0  0  0  0  0  0  0  0  0
    3.1471    3.5490    0.0000 F   0  0  0  0  0  0  0  0  0  0  0  0
    5.1962    3.0000    0.0000 C   0  0  0  0  0  0  0  0  0  0  0  0
    4.4462    4.2990    0.0000 F   0  0  0  0  0  0  0  0  0  0  0  0
    5.9462    1.7010    0.0000 F   0  0  0  0  0  0  0  0  0  0  0  0
    6.4952    3.7500    0.0000 C   0  0  0  0  0  0  0  0  0  0  0  0
    7.2452    2.4510    0.0000 F   0  0  0  0  0  0  0  0  0  0  0  0
    5.7452    5.0490    0.0000 F   0  0  0  0  0  0  0  0  0  0  0  0
    7.7942    4.5000    0.0000 C   0  0  0  0  0  0  0  0  0  0  0  0
    7.0442    5.7990    0.0000 F   0  0  0  0  0  0  0  0  0  0  0  0
    8.5442    3.2010    0.0000 F   0  0  0  0  0  0  0  0  0  0  0  0
    9.0933    5.2500    0.0000 C   0  0  0  0  0  0  0  0  0  0  0  0
    9.8433    3.9510    0.0000 F   0  0  0  0  0  0  0  0  0  0  0  0
    8.3433    6.5490    0.0000 F   0  0  0  0  0  0  0  0  0  0  0  0
   10.3923    6.0000    0.0000 C   0  0  0  0  0  0  0  0  0  0  0  0
   11.1423    4.7010    0.0000 F   0  0  0  0  0  0  0  0  0  0  0  0
    9.6423    7.2990    0.0000 F   0  0  0  0  0  0  0  0  0  0  0  0
   11.6913    6.7500    0.0000 C   0  0  0  0  0  0  0  0  0  0  0  0
   10.9413    8.0490    0.0000 F   0  0  0  0  0  0  0  0  0  0  0  0
   12.4413    5.4510    0.0000 F   0  0  0  0  0  0  0  0  0  0  0  0
   12.9904    7.5000    0.0000 C   0  0  0  0  0  0  0  0  0  0  0  0
   13.7404    6.2010    0.0000 F   0  0  0  0  0  0  0  0  0  0  0  0
   12.2404    8.7990    0.0000 F   0  0  0  0  0  0  0  0  0  0  0  0
   14.2894    8.2500    0.0000 C   0  0  0  0  0  0  0  0  0  0  0  0
   13.5394    9.5490    0.0000 F   0  0  0  0  0  0  0  0  0  0  0  0
   15.0394    6.9510    0.0000 F   0  0  0  0  0  0  0  0  0  0  0  0
   15.5885    9.0000    0.0000 C   0  0  0  0  0  0  0  0  0  0  0  0
   16.3385    7.7010    0.0000 F   0  0  0  0  0  0  0  0  0  0  0  0
   14.8385   10.2990    0.0000 F   0  0  0  0  0  0  0  0  0  0  0  0
   16.8875    9.7500    0.0000 C   0  0  0  0  0  0  0  0  0  0  0  0
   16.1375   11.0490    0.0000 F   0  0  0  0  0  0  0  0  0  0  0  0
   17.6375    8.4510    0.0000 F   0  0  0  0  0  0  0  0  0  0  0  0
   18.1865   10.5000    0.0000 C   0  0  0  0  0  0  0  0  0  0  0  0
   18.1865   12.0000    0.0000 F   0  0  0  0  0  0  0  0  0  0  0  0
   19.4856    9.7500    0.0000 F   0  0  0  0  0  0  0  0  0  0  0  0
  1  2  2  0
  2  3  1  0
  2  4  1  0
  4  5  1  0
  4  6  1  0
  4  7  1  0
  7  8  1  0
  7  9  1  0
  7 10  1  0
 10 11  1  0
 10 12  1  0
 10 13  1  0
 13 14  1  0
 13 15  1  0
 13 16  1  0
 16 17  1  0
 16 18  1  0
 16 19  1  0
 19 20  1  0
 19 21  1  0
 19 22  1  0
 22 23  1  0
 22 24  1  0
 22 25  1  0
 25 26  1  0
 25 27  1  0
 25 28  1  0
 28 29  1  0
 28 30  1  0
 28 31  1  0
 31 32  1  0
 31 33  1  0
 31 34  1  0
 34 35  1  0
 34 36  1  0
 34 37  1  0
 37 38  1  0
 37 39  1  0
 37 40  1  0
 40 41  1  0
 40 42  1  0
 40 43  1  0
 43 44  1  0
 43 45  1  0
M  CHG  1   3  -1
M  END
$$$$

     RDKit          2D

 39 38  0  0  0  0  0  0  0  0999 V2000
    7.0981    4.0981    0.0000 C   0  0  0  0  0  0  0  0  0  0  0  0
    5.7990    3.3481    0.0000 N   0  0  0  0  0  0  0  0  0  0  0  0
    4.5000    2.5981    0.0000 C   0  0  0  0  0  0  0  0  0  0  0  0
    5.0490    4.6471    0.0000 O   0  0  0  0  0  0  0  0  0  0  0  0
    6.5490    2.0490    0.0000 C   0  0  0  0  0  0  0  0  0  0  0  0
    5.7990    0.7500    0.0000 C   0  0  0  0  0  0  0  0  0  0  0  0
    6.5490   -0.5490    0.0000 C   0  0  0  0  0  0  0  0  0  0  0  0
    5.7990   -1.8481    0.0000 N   0  0  0  0  0  0  0  0  0  0  0  0
    6.5490   -3.1471    0.0000 S   0  0  0  0  0  0  0  0  0  0  0  0
    7.8481   -2.3971    0.0000 O   0  0  0  0  0  0  0  0  0  0  0  0
    5.8152   -3.4586    0.0000 O   0  0  0  0  0  0  0  0  0  0  0  0
    7.2990   -4.4462    0.0000 C   0  0  0  0  0  0  0  0  0  0  0  0
    8.5981   -3.6962    0.0000 F   0  0  0  0  0  0  0  0  0  0  0  0
    8.0490   -5.7452    0.0000 F   0  0  0  0  0  0  0  0  0  0  0  0
    6.0000   -5.1962    0.0000 C   0  0  0  0  0  0  0  0  0  0  0  0
    5.4669   -4.4888    0.0000 F   0  0  0  0  0  0  0  0  0  0  0  0
    6.7500   -6.4952    0.0000 F   0  0  0  0  0  0  0  0  0  0  0  0
    4.7010   -5.9462    0.0000 C   0  0  0  0  0  0  0  0  0  0  0  0
    5.4510   -7.2452    0.0000 F   0  0  0  0  0  0  0  0  0  0  0  0
    3.9510   -4.6471    0.0000 F   0  0  0  0  0  0  0  0  0  0  0  0
    3.4019   -6.6962    0.0000 C   0  0  0  0  0  0  0  0  0  0  0  0
    2.6519   -5.3971    0.0000 F   0  0  0  0  0  0  0  0  0  0  0  0
    4.1519   -7.9952    0.0000 F   0  0  0  0  0  0  0  0  0  0  0  0
    2.1029   -7.4462    0.0000 C   0  0  0  0  0  0  0  0  0  0  0  0
    2.8529   -8.7452    0.0000 F   0  0  0  0  0  0  0  0  0  0  0  0
    1.3529   -6.1471    0.0000 F   0  0  0  0  0  0  0  0  0  0  0  0
    0.8038   -8.1962    0.0000 C   0  0  0  0  0  0  0  0  0  0  0  0
    1.5538   -9.4952    0.0000 F   0  0  0  0  0  0  0  0  0  0  0  0
    0.0538   -6.8971    0.0000 F   0  0  0  0  0  0  0  0  0  0  0  0
   -0.4952   -8.9462    0.0000 C   0  0  0  0  0  0  0  0  0  0  0  0
   -1.2452   -7.6471    0.0000 F   0  0  0  0  0  0  0  0  0  0  0  0
    0.2548  -10.2452    0.0000 F   0  0  0  0  0  0  0  0  0  0  0  0
   -1.7942   -9.6962    0.0000 C   0  0  0  0  0  0  0  0  0  0  0  0
   -1.0442  -10.9952    0.0000 F   0  0  0  0  0  0  0  0  0  0  0  0
   -2.5442   -8.3971    0.0000 F   0  0  0  0  0  0  0  0  0  0  0  0
   -3.0933  -10.4462    0.0000 C   0  0  0  0  0  0  0  0  0  0  0  0
   -4.3923  -11.1962    0.0000 F   0  0  0  0  0  0  0  0  0  0  0  0
   -3.8433   -9.1471    0.0000 F   0  0  0  0  0  0  0  0  0  0  0  0
   -2.3433  -11.7452    0.0000 F   0  0  0  0  0  0  0  0  0  0  0  0
  1  2  1  0
  2  3  1  0
  2  4  1  0
  2  5  1  0
  5  6  1  0
  6  7  1  0
  7  8  1  0
  8  9  1  0
  9 10  2  0
  9 11  2  0
  9 12  1  0
 12 13  1  0
 12 14  1  0
 12 15  1  0
 15 16  1  0
 15 17  1  0
 15 18  1  0
 18 19  1  0
 18 20  1  0
 18 21  1  0
 21 22  1  0
 21 23  1  0
 21 24  1  0
 24 25  1  0
 24 26  1  0
 24 27  1  0
 27 28  1  0
 27 29  1  0
 27 30  1  0
 30 31  1  0
 30 32  1  0
 30 33  1  0
 33 34  1  0
 33 35  1  0
 33 36  1  0
 36 37  1  0
 36 38  1  0
 36 39  1  0
M  CHG  2   2   1   4  -1
M  END
$$$$

     RDKit          2D

 54 52  0  0  0  0  0  0  0  0999 V2000
   -3.3481    1.2990    0.0000 O   0  0  0  0  0  0  0  0  0  0  0  0
   -2.5981    0.0000    0.0000 P   0  0  0  0  0  0  0  0  0  0  0  0
   -1.8481   -1.2990    0.0000 O   0  0  0  0  0  0  0  0  0  0  0  0
   -1.2990    0.7500    0.0000 O   0  0  0  0  0  0  0  0  0  0  0  0
    0.0000    0.0000    0.0000 C   0  0  0  0  0  0  0  0  0  0  0  0
    1.2990    0.7500    0.0000 C   0  0  0  0  0  0  0  0  0  0  0  0
    2.5981   -0.0000    0.0000 C   0  0  0  0  0  0  0  0  0  0  0  0
    3.3481    1.2990    0.0000 F   0  0  0  0  0  0  0  0  0  0  0  0
    1.8481   -1.2990    0.0000 F   0  0  0  0  0  0  0  0  0  0  0  0
    3.8971   -0.7500    0.0000 C   0  0  0  0  0  0  0  0  0  0  0  0
    3.1471   -2.0490    0.0000 F   0  0  0  0  0  0  0  0  0  0  0  0
    4.6471    0.5490    0.0000 F   0  0  0  0  0  0  0  0  0  0  0  0
    5.1962   -1.5000    0.0000 C   0  0  0  0  0  0  0  0  0  0  0  0
    5.9462   -0.2010    0.0000 F   0  0  0  0  0  0  0  0  0  0  0  0
    4.4462   -2.7990    0.0000 F   0  0  0  0  0  0  0  0  0  0  0  0
    6.4952   -2.2500    0.0000 C   0  0  0  0  0  0  0  0  0  0  0  0
    5.7452   -3.5490    0.0000 F   0  0  0  0  0  0  0  0  0  0  0  0
    7.2452   -0.9510    0.0000 F   0  0  0  0  0  0  0  0  0  0  0  0
    7.7942   -3.0000    0.0000 C   0  0  0  0  0  0  0  0  0  0  0  0
    8.5442   -1.7010    0.0000 F   0  0  0  0  0  0  0  0  0  0  0  0
    7.0442   -4.2990    0.0000 F   0  0  0  0  0  0  0  0  0  0  0  0
    9.0933   -3.7500    0.0000 C   0  0  0  0  0  0  0  0  0  0  0  0
   10.3923   -4.5000    0.0000 F   0  0  0  0  0  0  0  0  0  0  0  0
    8.3433   -5.0490    0.0000 F   0  0  0  0  0  0  0  0  0  0  0  0
    9.8433   -2.4510    0.0000 F   0  0  0  0  0  0  0  0  0  0  0  0
   -3.8971   -0.7500    0.0000 O   0  0  0  0  0  0  0  0  0  0  0  0
   -3.8971   -2.2500    0.0000 C   0  0  0  0  0  0  0  0  0  0  0  0
   -5.1962   -3.0000    0.0000 C   0  0  0  0  0  0  0  0  0  0  0  0
   -5.1962   -4.5000    0.0000 C   0  0  0  0  0  0  0  0  0  0  0  0
   -6.6962   -4.5000    0.0000 F   0  0  0  0  0  0  0  0  0  0  0  0
   -3.6962   -4.5000    0.0000 F   0  0  0  0  0  0  0  0  0  0  0  0
   -5.1962   -6.0000    0.0000 C   0  0  0  0  0  0  0  0  0  0  0  0
   -3.6962   -6.0000    0.0000 F   0  0  0  0  0  0  0  0  0  0  0  0
   -6.6962   -6.0000    0.0000 F   0  0  0  0  0  0  0  0  0  0  0  0
   -5.1962   -7.5000    0.0000 C   0  0  0  0  0  0  0  0  0  0  0  0
   -6.6962   -7.5000    0.0000 F   0  0  0  0  0  0  0  0  0  0  0  0
   -3.6962   -7.5000    0.0000 F   0  0  0  0  0  0  0  0  0  0  0  0
   -5.1962   -9.0000    0.0000 C   0  0  0  0  0  0  0  0  0  0  0  0
   -3.6962   -9.0000    0.0000 F   0  0  0  0  0  0  0  0  0  0  0  0
   -6.6962   -9.0000    0.0000 F   0  0  0  0  0  0  0  0  0  0  0  0
   -5.1962  -10.5000    0.0000 C   0  0  0  0  0  0  0  0  0  0  0  0
   -6.6962  -10.5000    0.0000 F   0  0  0  0  0  0  0  0  0  0  0  0
   -3.6962  -10.5000    0.0000 F   0  0  0  0  0  0  0  0  0  0  0  0
   -5.1962  -12.0000    0.0000 C   0  0  0  0  0  0  0  0  0  0  0  0
   -3.6962  -12.0000    0.0000 F   0  0  0  0  0  0  0  0  0  0  0  0
   -6.6962  -12.0000    0.0000 F   0  0  0  0  0  0  0  0  0  0  0  0
   -5.1962  -13.5000    0.0000 C   0  0  0  0  0  0  0  0  0  0  0  0
   -6.6962  -13.5000    0.0000 F   0  0  0  0  0  0  0  0  0  0  0  0
   -3.6962  -13.5000    0.0000 F   0  0  0  0  0  0  0  0  0  0  0  0
   -5.1962  -15.0000    0.0000 C   0  0  0  0  0  0  0  0  0  0  0  0
   -5.1962  -16.5000    0.0000 F   0  0  0  0  0  0  0  0  0  0  0  0
   -3.6962  -15.0000    0.0000 F   0  0  0  0  0  0  0  0  0  0  0  0
   -6.6962  -15.0000    0.0000 F   0  0  0  0  0  0  0  0  0  0  0  0
   11.3923    0.0000    0.0000 Na  0  0  0  0  0 15  0  0  0  0  0  0
  1  2  2  0
  2  3  1  0
  2  4  1  0
  4  5  1  0
  5  6  1  0
  6  7  1  0
  7  8  1  0
  7  9  1  0
  7 10  1  0
 10 11  1  0
 10 12  1  0
 10 13  1  0
 13 14  1  0
 13 15  1  0
 13 16  1  0
 16 17  1  0
 16 18  1  0
 16 19  1  0
 19 20  1  0
 19 21  1  0
 19 22  1  0
 22 23  1  0
 22 24  1  0
 22 25  1  0
  2 26  1  0
 26 27  1  0
 27 28  1  0
 28 29  1  0
 29 30  1  0
 29 31  1  0
 29 32  1  0
 32 33  1  0
 32 34  1  0
 32 35  1  0
 35 36  1  0
 35 37  1  0
 35 38  1  0
 38 39  1  0
 38 40  1  0
 38 41  1  0
 41 42  1  0
 41 43  1  0
 41 44  1  0
 44 45  1  0
 44 46  1  0
 44 47  1  0
 47 48  1  0
 47 49  1  0
 47 50  1  0
 50 51  1  0
 50 52  1  0
 50 53  1  0
M  CHG  2   3  -1  54   1
M  END
$$$$

     RDKit          2D

 25 24  0  0  0  0  0  0  0  0999 V2000
   -0.0000   -1.5000    0.0000 O   0  0  0  0  0  0  0  0  0  0  0  0
    0.0000    0.0000    0.0000 C   0  0  0  0  0  0  0  0  0  0  0  0
   -1.2990    0.7500    0.0000 O   0  0  0  0  0  0  0  0  0  0  0  0
    1.2990    0.7500    0.0000 C   0  0  0  0  0  0  0  0  0  0  0  0
    2.0490   -0.5490    0.0000 F   0  0  0  0  0  0  0  0  0  0  0  0
    0.5490    2.0490    0.0000 F   0  0  0  0  0  0  0  0  0  0  0  0
    2.5981    1.5000    0.0000 C   0  0  0  0  0  0  0  0  0  0  0  0
    1.8481    2.7990    0.0000 F   0  0  0  0  0  0  0  0  0  0  0  0
    3.3481    0.2010    0.0000 F   0  0  0  0  0  0  0  0  0  0  0  0
    3.8971    2.2500    0.0000 C   0  0  0  0  0  0  0  0  0  0  0  0
    4.6471    0.9510    0.0000 F   0  0  0  0  0  0  0  0  0  0  0  0
    3.1471    3.5490    0.0000 F   0  0  0  0  0  0  0  0  0  0  0  0
    5.1962    3.0000    0.0000 C   0  0  0  0  0  0  0  0  0  0  0  0
    4.4462    4.2990    0.0000 F   0  0  0  0  0  0  0  0  0  0  0  0
    5.9462    1.7010    0.0000 F   0  0  0  0  0  0  0  0  0  0  0  0
    6.4952    3.7500    0.0000 C   0  0  0  0  0  0  0  0  0  0  0  0
    7.2452    2.4510    0.0000 F   0  0  0  0  0  0  0  0  0  0  0  0
    5.7452    5.0490    0.0000 F   0  0  0  0  0  0  0  0  0  0  0  0
    7.7942    4.5000    0.0000 C   0  0  0  0  0  0  0  0  0  0  0  0
    7.0442    5.7990    0.0000 F   0  0  0  0  0  0  0  0  0  0  0  0
    8.5442    3.2010    0.0000 F   0  0  0  0  0  0  0  0  0  0  0  0
    9.0933    5.2500    0.0000 C   0  0  0  0  0  0  0  0  0  0  0  0
   10.3923    6.0000    0.0000 F   0  0  0  0  0  0  0  0  0  0  0  0
    9.8433    3.9510    0.0000 F   0  0  0  0  0  0  0  0  0  0  0  0
    8.3433    6.5490    0.0000 F   0  0  0  0  0  0  0  0  0  0  0  0
  1  2  2  0
  2  3  1  0
  2  4  1  0
  4  5  1  0
  4  6  1  0
  4  7  1  0
  7  8  1  0
  7  9  1  0
  7 10  1  0
 10 11  1  0
 10 12  1  0
 10 13  1  0
 13 14  1  0
 13 15  1  0
 13 16  1  0
 16 17  1  0
 16 18  1  0
 16 19  1  0
 19 20  1  0
 19 21  1  0
 19 22  1  0
 22 23  1  0
 22 24  1  0
 22 25  1  0
M  ISO  4  13  13  16  13  19  13  22  13
M  END
$$$$

     RDKit          2D

 32 31  0  0  0  0  0  0  0  0999 V2000
   -3.3481    1.2990    0.0000 O   0  0  0  0  0  0  0  0  0  0  0  0
   -2.5981    0.0000    0.0000 P   0  0  0  0  0  0  0  0  0  0  0  0
   -1.8481   -1.2990    0.0000 O   0  0  0  0  0  0  0  0  0  0  0  0
   -3.8971   -0.7500    0.0000 O   0  0  0  0  0  0  0  0  0  0  0  0
   -1.2990    0.7500    0.0000 O   0  0  0  0  0  0  0  0  0  0  0  0
    0.0000    0.0000    0.0000 C   0  0  0  0  0  0  0  0  0  0  0  0
    1.2990    0.7500    0.0000 C   0  0  0  0  0  0  0  0  0  0  0  0
    2.5981   -0.0000    0.0000 C   0  0  0  0  0  0  0  0  0  0  0  0
    1.8481   -1.2990    0.0000 F   0  0  0  0  0  0  0  0  0  0  0  0
    3.3481    1.2990    0.0000 F   0  0  0  0  0  0  0  0  0  0  0  0
    3.8971   -0.7500    0.0000 C   0  0  0  0  0  0  0  0  0  0  0  0
    4.6471    0.5490    0.0000 F   0  0  0  0  0  0  0  0  0  0  0  0
    3.1471   -2.0490    0.0000 F   0  0  0  0  0  0  0  0  0  0  0  0
    5.1962   -1.5000    0.0000 C   0  0  0  0  0  0  0  0  0  0  0  0
    4.4462   -2.7990    0.0000 F   0  0  0  0  0  0  0  0  0  0  0  0
    5.9462   -0.2010    0.0000 F   0  0  0  0  0  0  0  0  0  0  0  0
    6.4952   -2.2500    0.0000 C   0  0  0  0  0  0  0  0  0  0  0  0
    7.2452   -0.9510    0.0000 F   0  0  0  0  0  0  0  0  0  0  0  0
    5.7452   -3.5490    0.0000 F   0  0  0  0  0  0  0  0  0  0  0  0
    7.7942   -3.0000    0.0000 C   0  0  0  0  0  0  0  0  0  0  0  0
    8.5442   -1.7010    0.0000 F   0  0  0  0  0  0  0  0  0  0  0  0
    7.0442   -4.2990    0.0000 F   0  0  0  0  0  0  0  0  0  0  0  0
    9.0933   -3.7500    0.0000 C   0  0  0  0  0  0  0  0  0  0  0  0
    8.3433   -5.0490    0.0000 F   0  0  0  0  0  0  0  0  0  0  0  0
    9.8433   -2.4510    0.0000 F   0  0  0  0  0  0  0  0  0  0  0  0
   10.3923   -4.5000    0.0000 C   0  0  0  0  0  0  0  0  0  0  0  0
   11.1423   -3.2010    0.0000 F   0  0  0  0  0  0  0  0  0  0  0  0
    9.6423   -5.7990    0.0000 F   0  0  0  0  0  0  0  0  0  0  0  0
   11.6913   -5.2500    0.0000 C   0  0  0  0  0  0  0  0  0  0  0  0
   12.9904   -6.0000    0.0000 F   0  0  0  0  0  0  0  0  0  0  0  0
   10.9413   -6.5490    0.0000 F   0  0  0  0  0  0  0  0  0  0  0  0
   12.4413   -3.9510    0.0000 F   0  0  0  0  0  0  0  0  0  0  0  0
  1  2  2  0
  2  3  1  0
  2  4  1  0
  2  5  1  0
  5  6  1  0
  6  7  1  0
  7  8  1  0
  8  9  1  0
  8 10  1  0
  8 11  1  0
 11 12  1  0
 11 13  1  0
 11 14  1  0
 14 15  1  0
 14 16  1  0
 14 17  1  0
 17 18  1  0
 17 19  1  0
 17 20  1  0
 20 21  1  0
 20 22  1  0
 20 23  1  0
 23 24  1  0
 23 25  1  0
 23 26  1  0
 26 27  1  0
 26 28  1  0
 26 29  1  0
 29 30  1  0
 29 31  1  0
 29 32  1  0
M  CHG  1   3  -1
M  ISO  2   6  13   7  13
M  END
$$$$

     RDKit          2D

 48 46  0  0  0  0  0  0  0  0999 V2000
   -1.8481   -1.2990    0.0000 O   0  0  0  0  0  0  0  0  0  0  0  0
   -2.5981    0.0000    0.0000 P   0  0  0  0  0  0  0  0  0  0  0  0
   -3.3481    1.2990    0.0000 O   0  0  0  0  0  0  0  0  0  0  0  0
   -1.2990    0.7500    0.0000 O   0  0  0  0  0  0  0  0  0  0  0  0
    0.0000    0.0000    0.0000 C   0  0  0  0  0  0  0  0  0  0  0  0
    1.2990    0.7500    0.0000 C   0  0  0  0  0  0  0  0  0  0  0  0
    2.5981   -0.0000    0.0000 C   0  0  0  0  0  0  0  0  0  0  0  0
    1.8481   -1.2990    0.0000 F   0  0  0  0  0  0  0  0  0  0  0  0
    3.3481    1.2990    0.0000 F   0  0  0  0  0  0  0  0  0  0  0  0
    3.8971   -0.7500    0.0000 C   0  0  0  0  0  0  0  0  0  0  0  0
    4.6471    0.5490    0.0000 F   0  0  0  0  0  0  0  0  0  0  0  0
    3.1471   -2.0490    0.0000 F   0  0  0  0  0  0  0  0  0  0  0  0
    5.1962   -1.5000    0.0000 C   0  0  0  0  0  0  0  0  0  0  0  0
    4.4462   -2.7990    0.0000 F   0  0  0  0  0  0  0  0  0  0  0  0
    5.9462   -0.2010    0.0000 F   0  0  0  0  0  0  0  0  0  0  0  0
    6.4952   -2.2500    0.0000 C   0  0  0  0  0  0  0  0  0  0  0  0
    5.7452   -3.5490    0.0000 F   0  0  0  0  0  0  0  0  0  0  0  0
    7.2452   -0.9510    0.0000 F   0  0  0  0  0  0  0  0  0  0  0  0
    7.7942   -3.0000    0.0000 C   0  0  0  0  0  0  0  0  0  0  0  0
    8.5442   -1.7010    0.0000 F   0  0  0  0  0  0  0  0  0  0  0  0
    7.0442   -4.2990    0.0000 F   0  0  0  0  0  0  0  0  0  0  0  0
    9.0933   -3.7500    0.0000 C   0  0  0  0  0  0  0  0  0  0  0  0
   10.3923   -4.5000    0.0000 F   0  0  0  0  0  0  0  0  0  0  0  0
    8.3433   -5.0490    0.0000 F   0  0  0  0  0  0  0  0  0  0  0  0
    9.8433   -2.4510    0.0000 F   0  0  0  0  0  0  0  0  0  0  0  0
   -3.8971   -0.7500    0.0000 O   0  0  0  0  0  0  0  0  0  0  0  0
   -3.8971   -2.2500    0.0000 C   0  0  0  0  0  0  0  0  0  0  0  0
   -5.1962   -3.0000    0.0000 C   0  0  0  0  0  0  0  0  0  0  0  0
   -5.1962   -4.5000    0.0000 C   0  0  0  0  0  0  0  0  0  0  0  0
   -3.6962   -4.5000    0.0000 F   0  0  0  0  0  0  0  0  0  0  0  0
   -6.6962   -4.5000    0.0000 F   0  0  0  0  0  0  0  0  0  0  0  0
   -5.1962   -6.0000    0.0000 C   0  0  0  0  0  0  0  0  0  0  0  0
   -6.6962   -6.0000    0.0000 F   0  0  0  0  0  0  0  0  0  0  0  0
   -3.6962   -6.0000    0.0000 F   0  0  0  0  0  0  0  0  0  0  0  0
   -5.1962   -7.5000    0.0000 C   0  0  0  0  0  0  0  0  0  0  0  0
   -3.6962   -7.5000    0.0000 F   0  0  0  0  0  0  0  0  0  0  0  0
   -6.6962   -7.5000    0.0000 F   0  0  0  0  0  0  0  0  0  0  0  0
   -5.1962   -9.0000    0.0000 C   0  0  0  0  0  0  0  0  0  0  0  0
   -3.6962   -9.0000    0.0000 F   0  0  0  0  0  0  0  0  0  0  0  0
   -6.6962   -9.0000    0.0000 F   0  0  0  0  0  0  0  0  0  0  0  0
   -5.1962  -10.5000    0.0000 C   0  0  0  0  0  0  0  0  0  0  0  0
   -6.6962  -10.5000    0.0000 F   0  0  0  0  0  0  0  0  0  0  0  0
   -3.6962  -10.5000    0.0000 F   0  0  0  0  0  0  0  0  0  0  0  0
   -5.1962  -12.0000    0.0000 C   0  0  0  0  0  0  0  0  0  0  0  0
   -5.1962  -13.5000    0.0000 F   0  0  0  0  0  0  0  0  0  0  0  0
   -3.6962  -12.0000    0.0000 F   0  0  0  0  0  0  0  0  0  0  0  0
   -6.6962  -12.0000    0.0000 F   0  0  0  0  0  0  0  0  0  0  0  0
    0.0000    2.2990    0.0000 Na  0  0  0  0  0 15  0  0  0  0  0  0
  1  2  2  0
  2  3  1  0
  2  4  1  0
  4  5  1  0
  5  6  1  0
  6  7  1  0
  7  8  1  0
  7  9  1  0
  7 10  1  0
 10 11  1  0
 10 12  1  0
 10 13  1  0
 13 14  1  0
 13 15  1  0
 13 16  1  0
 16 17  1  0
 16 18  1  0
 16 19  1  0
 19 20  1  0
 19 21  1  0
 19 22  1  0
 22 23  1  0
 22 24  1  0
 22 25  1  0
  2 26  1  0
 26 27  1  0
 27 28  1  0
 28 29  1  0
 29 30  1  0
 29 31  1  0
 29 32  1  0
 32 33  1  0
 32 34  1  0
 32 35  1  0
 35 36  1  0
 35 37  1  0
 35 38  1  0
 38 39  1  0
 38 40  1  0
 38 41  1  0
 41 42  1  0
 41 43  1  0
 41 44  1  0
 44 45  1  0
 44 46  1  0
 44 47  1  0
M  CHG  2   3  -1  48   1
M  ISO  4   5  13   6  13  27  13  28  13
M  END
$$$$

     RDKit          2D

 58 58  0  0  0  0  0  0  0  0999 V2000
    7.5000   -7.7942    0.0000 C   0  0  0  0  0  0  0  0  0  0  0  0
    6.0000   -7.7942    0.0000 C   0  0  0  0  0  0  0  0  0  0  0  0
    5.2500   -9.0933    0.0000 C   0  0  0  0  0  0  0  0  0  0  0  0
    5.2500   -6.4952    0.0000 C   0  0  0  0  0  0  0  0  0  0  0  0
    3.7500   -6.4952    0.0000 O   0  0  0  0  0  0  0  0  0  0  0  0
    6.0000   -5.1962    0.0000 O   0  0  0  0  0  0  0  0  0  0  0  0
    5.2500   -3.8971    0.0000 C   0  0  0  0  0  0  0  0  0  0  0  0
    6.0000   -2.5981    0.0000 C   0  0  0  0  0  0  0  0  0  0  0  0
    7.5000   -2.5981    0.0000 C   0  0  0  0  0  0  0  0  0  0  0  0
    5.2500   -1.2990    0.0000 O   0  0  0  0  0  0  0  0  0  0  0  0
    3.7500   -1.2990    0.0000 C   0  0  0  0  0  0  0  0  0  0  0  0
    3.0000   -2.5981    0.0000 O   0  0  0  0  0  0  0  0  0  0  0  0
    3.0000    0.0000    0.0000 N   0  0  0  0  0  0  0  0  0  0  0  0
    1.5000    0.0000    0.0000 C   0  0  0  0  0  0  0  0  0  0  0  0
    0.7500   -1.2990    0.0000 C   0  0  0  0  0  0  0  0  0  0  0  0
   -0.7500   -1.2990    0.0000 C   0  0  0  0  0  0  0  0  0  0  0  0
   -1.5000   -2.5981    0.0000 N   0  0  0  0  0  0  0  0  0  0  0  0
   -3.0000   -2.5981    0.0000 C   0  0  0  0  0  0  0  0  0  0  0  0
   -3.7500   -1.2990    0.0000 O   0  0  0  0  0  0  0  0  0  0  0  0
   -3.7500   -3.8971    0.0000 O   0  0  0  0  0  0  0  0  0  0  0  0
   -5.2500   -3.8971    0.0000 C   0  0  0  0  0  0  0  0  0  0  0  0
   -6.0000   -5.1962    0.0000 C   0  0  0  0  0  0  0  0  0  0  0  0
   -7.5000   -5.1962    0.0000 C   0  0  0  0  0  0  0  0  0  0  0  0
   -8.2500   -6.4952    0.0000 C   0  0  0  0  0  0  0  0  0  0  0  0
   -9.7500   -6.4952    0.0000 N   0  0  0  0  0  0  0  0  0  0  0  0
  -10.5000   -7.7942    0.0000 C   0  0  0  0  0  0  0  0  0  0  0  0
  -10.5000   -5.1962    0.0000 S   0  0  0  0  0  0  0  0  0  0  0  0
   -9.2010   -4.4462    0.0000 O   0  0  0  0  0  0  0  0  0  0  0  0
  -11.1366   -5.6759    0.0000 O   0  0  0  0  0  0  0  0  0  0  0  0
  -11.2500   -3.8971    0.0000 C   0  0  0  0  0  0  0  0  0  0  0  0
   -9.9510   -3.1471    0.0000 F   0  0  0  0  0  0  0  0  0  0  0  0
  -12.0000   -2.5981    0.0000 F   0  0  0  0  0  0  0  0  0  0  0  0
  -12.5490   -4.6471    0.0000 C   0  0  0  0  0  0  0  0  0  0  0  0
  -12.2030   -5.4624    0.0000 F   0  0  0  0  0  0  0  0  0  0  0  0
  -13.2990   -3.3481    0.0000 F   0  0  0  0  0  0  0  0  0  0  0  0
  -13.8481   -5.3971    0.0000 C   0  0  0  0  0  0  0  0  0  0  0  0
  -13.0981   -6.6962    0.0000 F   0  0  0  0  0  0  0  0  0  0  0  0
  -14.5981   -4.0981    0.0000 F   0  0  0  0  0  0  0  0  0  0  0  0
  -15.1471   -6.1471    0.0000 C   0  0  0  0  0  0  0  0  0  0  0  0
  -14.3971   -7.4462    0.0000 F   0  0  0  0  0  0  0  0  0  0  0  0
  -15.8971   -4.8481    0.0000 F   0  0  0  0  0  0  0  0  0  0  0  0
  -16.4462   -6.8971    0.0000 C   0  0  0  0  0  0  0  0  0  0  0  0
  -17.1962   -5.5981    0.0000 F   0  0  0  0  0  0  0  0  0  0  0  0
  -15.6962   -8.1962    0.0000 F   0  0  0  0  0  0  0  0  0  0  0  0
  -17.7452   -7.6471    0.0000 C   0  0  0  0  0  0  0  0  0  0  0  0
  -18.4952   -6.3481    0.0000 F   0  0  0  0  0  0  0  0  0  0  0  0
  -16.9952   -8.9462    0.0000 F   0  0  0  0  0  0  0  0  0  0  0  0
  -19.0442   -8.3971    0.0000 C   0  0  0  0  0  0  0  0  0  0  0  0
  -19.7942   -7.0981    0.0000 F   0  0  0  0  0  0  0  0  0  0  0  0
  -18.2942   -9.6962    0.0000 F   0  0  0  0  0  0  0  0  0  0  0  0
  -20.3433   -9.1471    0.0000 C   0  0  0  0  0  0  0  0  0  0  0  0
  -21.6423   -9.8971    0.0000 F   0  0  0  0  0  0  0  0  0  0  0  0
  -21.0933   -7.8481    0.0000 F   0  0  0  0  0  0  0  0  0  0  0  0
  -19.5933  -10.4462    0.0000 F   0  0  0  0  0  0  0  0  0  0  0  0
   -1.5000    0.0000    0.0000 C   0  0  0  0  0  0  0  0  0  0  0  0
   -0.7500    1.2990    0.0000 C   0  0  0  0  0  0  0  0  0  0  0  0
    0.7500    1.2990    0.0000 C   0  0  0  0  0  0  0  0  0  0  0  0
    1.5000    2.5981    0.0000 C   0  0  0  0  0  0  0  0  0  0  0  0
  1  2  2  0
  2  3  1  0
  2  4  1  0
  4  5  2  0
  4  6  1  0
  6  7  1  0
  7  8  1  0
  8  9  1  0
  8 10  1  0
 10 11  1  0
 11 12  2  0
 11 13  1  0
 13 14  1  0
 14 15  2  0
 15 16  1  0
 16 17  1  0
 17 18  1  0
 18 19  2  0
 18 20  1  0
 20 21  1  0
 21 22  1  0
 22 23  1  0
 23 24  1  0
 24 25  1  0
 25 26  1  0
 25 27  1  0
 27 28  2  0
 27 29  2  0
 27 30  1  0
 30 31  1  0
 30 32  1  0
 30 33  1  0
 33 34  1  0
 33 35  1  0
 33 36  1  0
 36 37  1  0
 36 38  1  0
 36 39  1  0
 39 40  1  0
 39 41  1  0
 39 42  1  0
 42 43  1  0
 42 44  1  0
 42 45  1  0
 45 46  1  0
 45 47  1  0
 45 48  1  0
 48 49  1  0
 48 50  1  0
 48 51  1  0
 51 52  1  0
 51 53  1  0
 51 54  1  0
 16 55  2  0
 55 56  1  0
 56 57  2  0
 57 58  1  0
 57 14  1  0
M  END
$$$$

     RDKit          2D

 40 39  0  0  0  0  0  0  0  0999 V2000
   -0.0000   -0.8857    0.0000 F   0  0  0  0  0  0  0  0  0  0  0  0
    0.0000    0.0000    0.0000 C   0  0  0  0  0  0  0  0  0  0  0  0
    1.2990    0.7500    0.0000 C   0  0  0  0  0  0  0  0  0  0  0  0
    1.1162    2.2388    0.0000 F   0  0  0  0  0  0  0  0  0  0  0  0
    2.5981   -0.0000    0.0000 C   0  0  0  0  0  0  0  0  0  0  0  0
    3.8971   -0.7500    0.0000 C   0  0  0  0  0  0  0  0  0  0  0  0
    5.1962   -1.5000    0.0000 F   0  0  0  0  0  0  0  0  0  0  0  0
    3.5511   -1.5653    0.0000 F   0  0  0  0  0  0  0  0  0  0  0  0
    4.4302   -0.0426    0.0000 F   0  0  0  0  0  0  0  0  0  0  0  0
    3.3481    1.2990    0.0000 C   0  0  0  0  0  0  0  0  0  0  0  0
    4.0981    2.5981    0.0000 F   0  0  0  0  0  0  0  0  0  0  0  0
    4.1634    0.9530    0.0000 F   0  0  0  0  0  0  0  0  0  0  0  0
    2.1501    2.2018    0.0000 F   0  0  0  0  0  0  0  0  0  0  0  0
    1.8481   -1.2990    0.0000 C   0  0  0  0  0  0  0  0  0  0  0  0
    1.0981   -2.5981    0.0000 F   0  0  0  0  0  0  0  0  0  0  0  0
    2.5554   -1.8321    0.0000 F   0  0  0  0  0  0  0  0  0  0  0  0
    0.9966   -1.0549    0.0000 F   0  0  0  0  0  0  0  0  0  0  0  0
   -1.2990    0.7500    0.0000 C   0  0  0  0  0  0  0  0  0  0  0  0
   -2.0490   -0.5490    0.0000 F   0  0  0  0  0  0  0  0  0  0  0  0
   -0.5490    2.0490    0.0000 F   0  0  0  0  0  0  0  0  0  0  0  0
   -2.5981    1.5000    0.0000 C   0  0  0  0  0  0  0  0  0  0  0  0
   -3.3481    0.2010    0.0000 F   0  0  0  0  0  0  0  0  0  0  0  0
   -1.8481    2.7990    0.0000 F   0  0  0  0  0  0  0  0  0  0  0  0
   -3.8971    2.2500    0.0000 C   0  0  0  0  0  0  0  0  0  0  0  0
   -3.8971    3.7500    0.0000 F   0  0  0  0  0  0  0  0  0  0  0  0
   -5.1962    1.5000    0.0000 C   0  0  0  0  0  0  0  0  0  0  0  0
   -5.0133    0.0112    0.0000 F   0  0  0  0  0  0  0  0  0  0  0  0
   -6.4952    2.2500    0.0000 C   0  0  0  0  0  0  0  0  0  0  0  0
   -7.7942    3.0000    0.0000 C   0  0  0  0  0  0  0  0  0  0  0  0
   -9.0933    3.7500    0.0000 F   0  0  0  0  0  0  0  0  0  0  0  0
   -7.2082    4.3808    0.0000 F   0  0  0  0  0  0  0  0  0  0  0  0
   -8.6970    1.8021    0.0000 F   0  0  0  0  0  0  0  0  0  0  0  0
   -7.2452    0.9510    0.0000 C   0  0  0  0  0  0  0  0  0  0  0  0
   -7.9952   -0.3481    0.0000 F   0  0  0  0  0  0  0  0  0  0  0  0
   -8.6260    1.5370    0.0000 F   0  0  0  0  0  0  0  0  0  0  0  0
   -6.0473    0.0482    0.0000 F   0  0  0  0  0  0  0  0  0  0  0  0
   -5.7452    3.5490    0.0000 C   0  0  0  0  0  0  0  0  0  0  0  0
   -4.9952    4.8481    0.0000 F   0  0  0  0  0  0  0  0  0  0  0  0
   -6.9431    4.4518    0.0000 F   0  0  0  0  0  0  0  0  0  0  0  0
   -4.3033    3.1357    0.0000 F   0  0  0  0  0  0  0  0  0  0  0  0
  1  2  1  0
  2  3  2  3
  3  4  1  0
  3  5  1  0
  5  6  1  0
  6  7  1  0
  6  8  1  0
  6  9  1  0
  5 10  1  0
 10 11  1  0
 10 12  1  0
 10 13  1  0
  5 14  1  0
 14 15  1  0
 14 16  1  0
 14 17  1  0
  2 18  1  0
 18 19  1  0
 18 20  1  0
 18 21  1  0
 21 22  1  0
 21 23  1  0
 21 24  1  0
 24 25  1  0
 24 26  2  3
 26 27  1  0
 26 28  1  0
 28 29  1  0
 29 30  1  0
 29 31  1  0
 29 32  1  0
 28 33  1  0
 33 34  1  0
 33 35  1  0
 33 36  1  0
 28 37  1  0
 37 38  1  0
 37 39  1  0
 37 40  1  0
M  END
$$$$

     RDKit          2D

 17 15  0  0  0  0  0  0  0  0999 V2000
    1.1979   -2.4028    0.0000 O   0  0  0  0  0  0  0  0  0  0  0  0
    0.0000   -1.5000    0.0000 S   0  0  0  0  0  0  0  0  0  0  0  0
   -1.2990   -2.2500    0.0000 O   0  0  0  0  0  0  0  0  0  0  0  0
    0.0000    0.0000    0.0000 C   0  0  0  0  0  0  0  0  0  0  0  0
   -1.5000    0.0000    0.0000 F   0  0  0  0  0  0  0  0  0  0  0  0
    0.0000    1.5000    0.0000 F   0  0  0  0  0  0  0  0  0  0  0  0
    1.5000    0.0000    0.0000 C   0  0  0  0  0  0  0  0  0  0  0  0
    1.5000    1.5000    0.0000 F   0  0  0  0  0  0  0  0  0  0  0  0
    1.6828   -1.4888    0.0000 F   0  0  0  0  0  0  0  0  0  0  0  0
    3.0000    0.0000    0.0000 C   0  0  0  0  0  0  0  0  0  0  0  0
    3.0000    1.5000    0.0000 F   0  0  0  0  0  0  0  0  0  0  0  0
    3.0000   -1.5000    0.0000 F   0  0  0  0  0  0  0  0  0  0  0  0
    4.5000    0.0000    0.0000 C   0  0  0  0  0  0  0  0  0  0  0  0
    6.0000    0.0000    0.0000 F   0  0  0  0  0  0  0  0  0  0  0  0
    4.5000   -1.5000    0.0000 F   0  0  0  0  0  0  0  0  0  0  0  0
    4.5000    1.5000    0.0000 F   0  0  0  0  0  0  0  0  0  0  0  0
    0.0000    2.5000    0.0000 Na  0  0  0  0  0 15  0  0  0  0  0  0
  1  2  2  0
  2  3  1  0
  2  4  1  0
  4  5  1  0
  4  6  1  0
  4  7  1  0
  7  8  1  0
  7  9  1  0
  7 10  1  0
 10 11  1  0
 10 12  1  0
 10 13  1  0
 13 14  1  0
 13 15  1  0
 13 16  1  0
M  CHG  2   3  -1  17   1
M  END
$$$$

     RDKit          2D

 40 41  0  0  0  0  0  0  0  0999 V2000
    4.9472    2.8925    0.0000 F   0  0  0  0  0  0  0  0  0  0  0  0
    3.7981    1.9284    0.0000 C   0  0  0  0  0  0  0  0  0  0  0  0
    4.4459    1.3243    0.0000 F   0  0  0  0  0  0  0  0  0  0  0  0
    3.3157    2.6712    0.0000 F   0  0  0  0  0  0  0  0  0  0  0  0
    2.6491    0.9642    0.0000 C   0  0  0  0  0  0  0  0  0  0  0  0
    3.6132   -0.1849    0.0000 C   0  0  0  0  0  0  0  0  0  0  0  0
    4.5774   -1.3340    0.0000 F   0  0  0  0  0  0  0  0  0  0  0  0
    3.0927   -0.9015    0.0000 F   0  0  0  0  0  0  0  0  0  0  0  0
    4.3561    0.2975    0.0000 F   0  0  0  0  0  0  0  0  0  0  0  0
    1.6849    2.1132    0.0000 C   0  0  0  0  0  0  0  0  0  0  0  0
    1.0274    3.4615    0.0000 F   0  0  0  0  0  0  0  0  0  0  0  0
    2.2889    2.7610    0.0000 F   0  0  0  0  0  0  0  0  0  0  0  0
    0.3367    1.4558    0.0000 F   0  0  0  0  0  0  0  0  0  0  0  0
    1.5000    0.0000    0.0000 C   0  0  0  0  0  0  0  0  0  0  0  0
    2.1041   -0.6478    0.0000 F   0  0  0  0  0  0  0  0  0  0  0  0
    0.7500   -1.2990    0.0000 C   0  0  0  0  0  0  0  0  0  0  0  0
    2.0865   -1.9801    0.0000 F   0  0  0  0  0  0  0  0  0  0  0  0
    0.4895   -2.7762    0.0000 F   0  0  0  0  0  0  0  0  0  0  0  0
   -0.7500   -1.2990    0.0000 C   0  0  0  0  0  0  0  0  0  0  0  0
   -0.4895   -2.7762    0.0000 F   0  0  0  0  0  0  0  0  0  0  0  0
   -1.9935   -2.1379    0.0000 F   0  0  0  0  0  0  0  0  0  0  0  0
   -1.5000    0.0000    0.0000 C   0  0  0  0  0  0  0  0  0  0  0  0
   -2.2500   -1.2990    0.0000 F   0  0  0  0  0  0  0  0  0  0  0  0
   -3.0000    0.0000    0.0000 C   0  0  0  0  0  0  0  0  0  0  0  0
   -4.4095   -0.5130    0.0000 F   0  0  0  0  0  0  0  0  0  0  0  0
   -3.1047   -1.4963    0.0000 F   0  0  0  0  0  0  0  0  0  0  0  0
   -3.7500    1.2990    0.0000 C   0  0  0  0  0  0  0  0  0  0  0  0
   -4.8991    2.2632    0.0000 F   0  0  0  0  0  0  0  0  0  0  0  0
   -4.8991    0.3349    0.0000 F   0  0  0  0  0  0  0  0  0  0  0  0
   -3.0000    2.5981    0.0000 C   0  0  0  0  0  0  0  0  0  0  0  0
   -2.7395    4.0753    0.0000 F   0  0  0  0  0  0  0  0  0  0  0  0
   -4.4095    3.1111    0.0000 F   0  0  0  0  0  0  0  0  0  0  0  0
   -1.5000    2.5981    0.0000 C   0  0  0  0  0  0  0  0  0  0  0  0
   -0.3680    3.5823    0.0000 F   0  0  0  0  0  0  0  0  0  0  0  0
   -1.7605    4.0753    0.0000 F   0  0  0  0  0  0  0  0  0  0  0  0
   -0.7500    1.2990    0.0000 C   0  0  0  0  0  0  0  0  0  0  0  0
    0.0000    2.5981    0.0000 F   0  0  0  0  0  0  0  0  0  0  0  0
    0.7500    1.2990    0.0000 C   0  0  0  0  0  0  0  0  0  0  0  0
    0.6715    2.7970    0.0000 F   0  0  0  0  0  0  0  0  0  0  0  0
    1.9935    2.1379    0.0000 F   0  0  0  0  0  0  0  0  0  0  0  0
  1  2  1  0
  2  3  1  0
  2  4  1  0
  2  5  1  0
  5  6  1  0
  6  7  1  0
  6  8  1  0
  6  9  1  0
  5 10  1  0
 10 11  1  0
 10 12  1  0
 10 13  1  0
  5 14  1  0
 14 15  1  0
 14 16  1  0
 16 17  1  0
 16 18  1  0
 16 19  1  0
 19 20  1  0
 19 21  1  0
 19 22  1  0
 22 23  1  0
 22 24  1  0
 24 25  1  0
 24 26  1  0
 24 27  1  0
 27 28  1  0
 27 29  1  0
 27 30  1  0
 30 31  1  0
 30 32  1  0
 30 33  1  0
 33 34  1  0
 33 35  1  0
 33 36  1  0
 36 37  1  0
 36 38  1  0
 38 39  1  0
 38 40  1  0
 38 14  1  0
 36 22  1  0
M  END
$$$$

     RDKit          2D

 18 17  0  0  0  0  0  0  0  0999 V2000
    0.0000   -3.0000    0.0000 O   0  0  0  0  0  0  0  0  0  0  0  0
    0.0000   -1.5000    0.0000 S   0  0  0  0  0  0  0  0  0  0  0  0
   -1.5000   -1.5000    0.0000 O   0  0  0  0  0  0  0  0  0  0  0  0
    0.7912   -1.5972    0.0000 F   0  0  0  0  0  0  0  0  0  0  0  0
    0.0000    0.0000    0.0000 C   0  0  0  0  0  0  0  0  0  0  0  0
   -1.5000    0.0000    0.0000 F   0  0  0  0  0  0  0  0  0  0  0  0
    0.0000    1.5000    0.0000 F   0  0  0  0  0  0  0  0  0  0  0  0
    1.5000    0.0000    0.0000 C   0  0  0  0  0  0  0  0  0  0  0  0
    1.6080   -0.8791    0.0000 F   0  0  0  0  0  0  0  0  0  0  0  0
    1.5000    1.5000    0.0000 F   0  0  0  0  0  0  0  0  0  0  0  0
    3.0000    0.0000    0.0000 O   0  0  0  0  0  0  0  0  0  0  0  0
    3.7500    1.2990    0.0000 C   0  0  0  0  0  0  0  0  0  0  0  0
    2.4510    2.0490    0.0000 F   0  0  0  0  0  0  0  0  0  0  0  0
    5.0490    0.5490    0.0000 Cl  0  0  0  0  0  0  0  0  0  0  0  0
    4.5000    2.5981    0.0000 C   0  0  0  0  0  0  0  0  0  0  0  0
    5.2500    3.8971    0.0000 F   0  0  0  0  0  0  0  0  0  0  0  0
    3.2010    3.3481    0.0000 F   0  0  0  0  0  0  0  0  0  0  0  0
    5.7990    1.8481    0.0000 Cl  0  0  0  0  0  0  0  0  0  0  0  0
  1  2  2  0
  2  3  2  0
  2  4  1  0
  2  5  1  0
  5  6  1  0
  5  7  1  0
  5  8  1  0
  8  9  1  0
  8 10  1  0
  8 11  1  0
 11 12  1  0
 12 13  1  0
 12 14  1  0
 12 15  1  0
 15 16  1  0
 15 17  1  0
 15 18  1  0
M  END
$$$$

     RDKit          2D

 25 27  0  0  0  0  0  0  0  0999 V2000
    2.7760    0.0000    0.0000 C   0  0  0  0  0  0  0  0  0  0  0  0
    1.2760    0.0000    0.0000 C   0  0  0  0  0  0  0  0  0  0  0  0
    0.3943    1.2135    0.0000 C   0  0  0  0  0  0  0  0  0  0  0  0
   -1.0323    0.7500    0.0000 C   0  0  0  0  0  0  0  0  0  0  0  0
   -2.2458    1.6317    0.0000 C   0  0  0  0  0  0  0  0  0  0  0  0
   -3.6724    1.1682    0.0000 C   0  0  0  0  0  0  0  0  0  0  0  0
   -4.1359   -0.2584    0.0000 C   0  0  0  0  0  0  0  0  0  0  0  0
   -3.2542   -1.4720    0.0000 C   0  0  0  0  0  0  0  0  0  0  0  0
   -4.1359   -2.6855    0.0000 C   0  0  0  0  0  0  0  0  0  0  0  0
   -3.6724   -4.1121    0.0000 C   0  0  0  0  0  0  0  0  0  0  0  0
   -5.5625   -2.2220    0.0000 S   0  0  0  0  0  0  0  0  0  0  0  0
   -5.5625   -0.7220    0.0000 C   0  0  0  0  0  0  0  0  0  0  0  0
   -6.7760    0.1597    0.0000 C   0  0  0  0  0  0  0  0  0  0  0  0
   -4.5541    2.3817    0.0000 C   0  0  0  0  0  0  0  0  0  0  0  0
   -5.6688    1.3780    0.0000 F   0  0  0  0  0  0  0  0  0  0  0  0
   -5.6688    3.3854    0.0000 F   0  0  0  0  0  0  0  0  0  0  0  0
   -3.6724    3.5952    0.0000 C   0  0  0  0  0  0  0  0  0  0  0  0
   -4.9714    4.3452    0.0000 F   0  0  0  0  0  0  0  0  0  0  0  0
   -3.0623    4.9655    0.0000 F   0  0  0  0  0  0  0  0  0  0  0  0
   -2.2458    3.1317    0.0000 C   0  0  0  0  0  0  0  0  0  0  0  0
   -1.9339    4.5989    0.0000 F   0  0  0  0  0  0  0  0  0  0  0  0
   -0.7540    2.9749    0.0000 F   0  0  0  0  0  0  0  0  0  0  0  0
   -1.0323   -0.7500    0.0000 C   0  0  0  0  0  0  0  0  0  0  0  0
   -2.2458   -1.6317    0.0000 C   0  0  0  0  0  0  0  0  0  0  0  0
    0.3943   -1.2135    0.0000 S   0  0  0  0  0  0  0  0  0  0  0  0
  1  2  1  0
  2  3  2  0
  3  4  1  0
  4  5  1  0
  5  6  2  0
  6  7  1  0
  7  8  1  0
  8  9  2  0
  9 10  1  0
  9 11  1  0
 11 12  1  0
 12 13  1  0
  6 14  1  0
 14 15  1  0
 14 16  1  0
 14 17  1  0
 17 18  1  0
 17 19  1  0
 17 20  1  0
 20 21  1  0
 20 22  1  0
  4 23  2  0
 23 24  1  0
 23 25  1  0
 25  2  1  0
 20  5  1  0
 12  7  2  0
M  END
$$$$

     RDKit          2D

 49 52  0  0  0  0  0  0  0  0999 V2000
    3.0000    0.0000    0.0000 N   0  0  0  0  0  0  0  0  0  0  0  0
    1.5000    0.0000    0.0000 C   0  0  0  0  0  0  0  0  0  0  0  0
    0.7500   -1.2990    0.0000 C   0  0  0  0  0  0  0  0  0  0  0  0
   -0.7500   -1.2990    0.0000 C   0  0  0  0  0  0  0  0  0  0  0  0
   -1.5000    0.0000    0.0000 C   0  0  0  0  0  0  0  0  0  0  0  0
   -0.7500    1.2990    0.0000 C   0  0  0  0  0  0  0  0  0  0  0  0
   -1.5000    2.5981    0.0000 C   0  0  0  0  0  0  0  0  0  0  0  0
   -0.7500    3.8971    0.0000 O   0  0  0  0  0  0  0  0  0  0  0  0
   -3.0000    2.5981    0.0000 N   0  0  0  0  0  0  0  0  0  0  0  0
   -3.7500    3.8971    0.0000 C   0  0  0  0  0  0  0  0  0  0  0  0
   -3.0000    5.1962    0.0000 C   0  0  0  0  0  0  0  0  0  0  0  0
   -1.5000    5.1962    0.0000 O   0  0  0  0  0  0  0  0  0  0  0  0
   -3.7500    6.4952    0.0000 C   0  0  0  0  0  0  0  0  0  0  0  0
   -3.0000    7.7942    0.0000 F   0  0  0  0  0  0  0  0  0  0  0  0
   -5.2500    6.4952    0.0000 C   0  0  0  0  0  0  0  0  0  0  0  0
   -6.0000    7.7942    0.0000 F   0  0  0  0  0  0  0  0  0  0  0  0
   -6.0000    5.1962    0.0000 C   0  0  0  0  0  0  0  0  0  0  0  0
   -7.5000    5.1962    0.0000 C   0  0  0  0  0  0  0  0  0  0  0  0
   -9.0000    5.1962    0.0000 C   0  0  0  0  0  0  0  0  0  0  0  0
   -9.7500    6.4952    0.0000 C   0  0  0  0  0  0  0  0  0  0  0  0
   -9.0000    7.7942    0.0000 F   0  0  0  0  0  0  0  0  0  0  0  0
  -11.2500    6.4952    0.0000 C   0  0  0  0  0  0  0  0  0  0  0  0
  -12.0000    7.7942    0.0000 F   0  0  0  0  0  0  0  0  0  0  0  0
  -12.0000    5.1962    0.0000 C   0  0  0  0  0  0  0  0  0  0  0  0
  -12.7735    5.3890    0.0000 O   0  0  0  0  0  0  0  0  0  0  0  0
  -11.2500    3.8971    0.0000 C   0  0  0  0  0  0  0  0  0  0  0  0
  -12.0000    2.5981    0.0000 N   0  0  0  0  0  0  0  0  0  0  0  0
  -13.5000    2.5981    0.0000 C   0  0  0  0  0  0  0  0  0  0  0  0
  -14.2500    1.2990    0.0000 O   0  0  0  0  0  0  0  0  0  0  0  0
  -14.2500    3.8971    0.0000 C   0  0  0  0  0  0  0  0  0  0  0  0
  -13.5000    5.1962    0.0000 C   0  0  0  0  0  0  0  0  0  0  0  0
  -14.2500    6.4952    0.0000 C   0  0  0  0  0  0  0  0  0  0  0  0
  -15.7500    6.4952    0.0000 C   0  0  0  0  0  0  0  0  0  0  0  0
  -16.5000    5.1962    0.0000 C   0  0  0  0  0  0  0  0  0  0  0  0
  -18.0000    5.1962    0.0000 N   0  0  0  0  0  0  0  0  0  0  0  0
  -15.7500    3.8971    0.0000 C   0  0  0  0  0  0  0  0  0  0  0  0
   -9.7500    3.8971    0.0000 C   0  0  0  0  0  0  0  0  0  0  0  0
   -9.0000    2.5981    0.0000 F   0  0  0  0  0  0  0  0  0  0  0  0
   -7.5000    6.6962    0.0000 C   0  0  0  0  0  0  0  0  0  0  0  0
   -7.5000    8.1962    0.0000 F   0  0  0  0  0  0  0  0  0  0  0  0
   -8.9554    7.0591    0.0000 F   0  0  0  0  0  0  0  0  0  0  0  0
   -6.0446    7.0591    0.0000 F   0  0  0  0  0  0  0  0  0  0  0  0
   -7.5000    3.6962    0.0000 C   0  0  0  0  0  0  0  0  0  0  0  0
   -7.5000    2.1962    0.0000 F   0  0  0  0  0  0  0  0  0  0  0  0
   -8.9554    3.3332    0.0000 F   0  0  0  0  0  0  0  0  0  0  0  0
   -6.0446    3.3332    0.0000 F   0  0  0  0  0  0  0  0  0  0  0  0
   -5.2500    3.8971    0.0000 C   0  0  0  0  0  0  0  0  0  0  0  0
   -6.0000    2.5981    0.0000 F   0  0  0  0  0  0  0  0  0  0  0  0
    0.7500    1.2990    0.0000 C   0  0  0  0  0  0  0  0  0  0  0  0
  1  2  1  0
  2  3  2  0
  3  4  1  0
  4  5  2  0
  5  6  1  0
  6  7  1  0
  7  8  1  0
  7  9  2  0
  9 10  1  0
 10 11  2  0
 11 12  1  0
 11 13  1  0
 13 14  1  0
 13 15  2  0
 15 16  1  0
 15 17  1  0
 17 18  1  0
 18 19  1  0
 19 20  2  0
 20 21  1  0
 20 22  1  0
 22 23  1  0
 22 24  2  0
 24 25  1  0
 24 26  1  0
 26 27  1  0
 27 28  2  0
 28 29  1  0
 28 30  1  0
 30 31  2  0
 31 32  1  0
 32 33  2  0
 33 34  1  0
 34 35  1  0
 34 36  2  0
 26 37  2  0
 37 38  1  0
 18 39  1  0
 39 40  1  0
 39 41  1  0
 39 42  1  0
 18 43  1  0
 43 44  1  0
 43 45  1  0
 43 46  1  0
 17 47  2  0
 47 48  1  0
  6 49  2  0
 49  2  1  0
 47 10  1  0
 37 19  1  0
 36 30  1  0
M  END
$$$$

     RDKit          2D

 19 18  0  0  0  0  0  0  0  0999 V2000
    0.0000    1.5000    0.0000 F   0  0  0  0  0  0  0  0  0  0  0  0
    0.0000    0.0000    0.0000 C   0  0  0  0  0  0  0  0  0  0  0  0
   -0.0000   -1.5000    0.0000 F   0  0  0  0  0  0  0  0  0  0  0  0
    1.5000    0.0000    0.0000 O   0  0  0  0  0  0  0  0  0  0  0  0
    2.2500   -1.2990    0.0000 C   0  0  0  0  0  0  0  0  0  0  0  0
    0.9510   -2.0490    0.0000 F   0  0  0  0  0  0  0  0  0  0  0  0
    3.5490   -0.5490    0.0000 F   0  0  0  0  0  0  0  0  0  0  0  0
    3.0000   -2.5981    0.0000 C   0  0  0  0  0  0  0  0  0  0  0  0
    3.7500   -3.8971    0.0000 F   0  0  0  0  0  0  0  0  0  0  0  0
    1.7010   -3.3481    0.0000 F   0  0  0  0  0  0  0  0  0  0  0  0
    4.2990   -1.8481    0.0000 F   0  0  0  0  0  0  0  0  0  0  0  0
   -1.5000    0.0000    0.0000 O   0  0  0  0  0  0  0  0  0  0  0  0
   -2.2500   -1.2990    0.0000 C   0  0  0  0  0  0  0  0  0  0  0  0
   -0.9510   -2.0490    0.0000 F   0  0  0  0  0  0  0  0  0  0  0  0
   -3.5490   -0.5490    0.0000 Cl  0  0  0  0  0  0  0  0  0  0  0  0
   -3.0000   -2.5981    0.0000 C   0  0  0  0  0  0  0  0  0  0  0  0
   -3.7500   -3.8971    0.0000 F   0  0  0  0  0  0  0  0  0  0  0  0
   -1.7010   -3.3481    0.0000 F   0  0  0  0  0  0  0  0  0  0  0  0
   -4.2990   -1.8481    0.0000 Cl  0  0  0  0  0  0  0  0  0  0  0  0
  1  2  1  0
  2  3  1  0
  2  4  1  0
  4  5  1  0
  5  6  1  0
  5  7  1  0
  5  8  1  0
  8  9  1  0
  8 10  1  0
  8 11  1  0
  2 12  1  0
 12 13  1  0
 13 14  1  0
 13 15  1  0
 13 16  1  0
 16 17  1  0
 16 18  1  0
 16 19  1  0
M  END
$$$$

     RDKit          2D

 28 26  0  0  0  0  0  0  0  0999 V2000
    0.0000    0.0000    0.0000 C   0  0  0  0  0  0  0  0  0  0  0  0
    1.2990    0.7500    0.0000 C   0  0  0  0  0  0  0  0  0  0  0  0
    2.5981   -0.0000    0.0000 N   0  0  0  0  0  0  0  0  0  0  0  0
    3.8971    0.7500    0.0000 C   0  0  0  0  0  0  0  0  0  0  0  0
    5.1962   -0.0000    0.0000 C   0  0  0  0  0  0  0  0  0  0  0  0
    5.1962   -1.5000    0.0000 O   0  0  0  0  0  0  0  0  0  0  0  0
    6.4952    0.7500    0.0000 C   0  0  0  0  0  0  0  0  0  0  0  0
    7.7942   -0.0000    0.0000 S   0  0  0  0  0  0  0  0  0  0  0  0
    8.5442    1.2990    0.0000 O   0  0  0  0  0  0  0  0  0  0  0  0
    7.0442   -1.2990    0.0000 O   0  0  0  0  0  0  0  0  0  0  0  0
    9.0933   -0.7500    0.0000 O   0  0  0  0  0  0  0  0  0  0  0  0
    2.5981   -1.5000    0.0000 S   0  0  0  0  0  0  0  0  0  0  0  0
    1.8069   -1.4028    0.0000 O   0  0  0  0  0  0  0  0  0  0  0  0
    4.0981   -1.5000    0.0000 O   0  0  0  0  0  0  0  0  0  0  0  0
    2.5981   -3.0000    0.0000 C   0  0  0  0  0  0  0  0  0  0  0  0
    4.0981   -3.0000    0.0000 F   0  0  0  0  0  0  0  0  0  0  0  0
    2.5981   -4.5000    0.0000 F   0  0  0  0  0  0  0  0  0  0  0  0
    1.0981   -3.0000    0.0000 C   0  0  0  0  0  0  0  0  0  0  0  0
    0.9901   -2.1209    0.0000 F   0  0  0  0  0  0  0  0  0  0  0  0
    1.0981   -4.5000    0.0000 F   0  0  0  0  0  0  0  0  0  0  0  0
   -0.4019   -3.0000    0.0000 C   0  0  0  0  0  0  0  0  0  0  0  0
   -0.4019   -4.5000    0.0000 F   0  0  0  0  0  0  0  0  0  0  0  0
   -0.4019   -1.5000    0.0000 F   0  0  0  0  0  0  0  0  0  0  0  0
   -1.9019   -3.0000    0.0000 C   0  0  0  0  0  0  0  0  0  0  0  0
   -3.4019   -3.0000    0.0000 F   0  0  0  0  0  0  0  0  0  0  0  0
   -1.9019   -1.5000    0.0000 F   0  0  0  0  0  0  0  0  0  0  0  0
   -1.9019   -4.5000    0.0000 F   0  0  0  0  0  0  0  0  0  0  0  0
    0.0000    2.2990    0.0000 N   0  0  0  0  0  0  0  0  0  0  0  0
  1  2  1  0
  2  3  1  0
  3  4  1  0
  4  5  1  0
  5  6  1  0
  5  7  1  0
  7  8  1  0
  8  9  2  0
  8 10  2  0
  8 11  1  0
  3 12  1  0
 12 13  2  0
 12 14  2  0
 12 15  1  0
 15 16  1  0
 15 17  1  0
 15 18  1  0
 18 19  1  0
 18 20  1  0
 18 21  1  0
 21 22  1  0
 21 23  1  0
 21 24  1  0
 24 25  1  0
 24 26  1  0
 24 27  1  0
M  CHG  2  11  -1  28   1
M  END
$$$$

     RDKit          2D

 21 20  0  0  0  0  0  0  0  0999 V2000
    0.0000    0.0000    0.0000 C   0  0  0  0  0  0  0  0  0  0  0  0
    1.2990    0.7500    0.0000 C   0  0  0  0  0  0  0  0  0  0  0  0
    1.2990    2.2500    0.0000 Cl  0  0  0  0  0  0  0  0  0  0  0  0
    2.5981   -0.0000    0.0000 C   0  0  0  0  0  0  0  0  0  0  0  0
    2.5981   -1.5000    0.0000 O   0  0  0  0  0  0  0  0  0  0  0  0
    3.8971    0.7500    0.0000 O   0  0  0  0  0  0  0  0  0  0  0  0
    5.1962   -0.0000    0.0000 C   0  0  0  0  0  0  0  0  0  0  0  0
    6.4952    0.7500    0.0000 C   0  0  0  0  0  0  0  0  0  0  0  0
    7.7942   -0.0000    0.0000 C   0  0  0  0  0  0  0  0  0  0  0  0
    8.5442    1.2990    0.0000 F   0  0  0  0  0  0  0  0  0  0  0  0
    7.0442   -1.2990    0.0000 F   0  0  0  0  0  0  0  0  0  0  0  0
    9.0933   -0.7500    0.0000 C   0  0  0  0  0  0  0  0  0  0  0  0
    8.3433   -2.0490    0.0000 F   0  0  0  0  0  0  0  0  0  0  0  0
    9.8433    0.5490    0.0000 F   0  0  0  0  0  0  0  0  0  0  0  0
   10.3923   -1.5000    0.0000 C   0  0  0  0  0  0  0  0  0  0  0  0
   11.1423   -0.2010    0.0000 F   0  0  0  0  0  0  0  0  0  0  0  0
    9.6423   -2.7990    0.0000 F   0  0  0  0  0  0  0  0  0  0  0  0
   11.6913   -2.2500    0.0000 C   0  0  0  0  0  0  0  0  0  0  0  0
   12.9904   -3.0000    0.0000 F   0  0  0  0  0  0  0  0  0  0  0  0
   10.9413   -3.5490    0.0000 F   0  0  0  0  0  0  0  0  0  0  0  0
   12.4413   -0.9510    0.0000 F   0  0  0  0  0  0  0  0  0  0  0  0
  1  2  2  0
  2  3  1  0
  2  4  1  0
  4  5  2  0
  4  6  1  0
  6  7  1  0
  7  8  1  0
  8  9  1  0
  9 10  1  0
  9 11  1  0
  9 12  1  0
 12 13  1  0
 12 14  1  0
 12 15  1  0
 15 16  1  0
 15 17  1  0
 15 18  1  0
 18 19  1  0
 18 20  1  0
 18 21  1  0
M  END
$$$$

     RDKit          2D

 14 12  0  0  0  0  0  0  0  0999 V2000
   -0.0000   -1.5000    0.0000 O   0  0  0  0  0  0  0  0  0  0  0  0
    0.0000    0.0000    0.0000 C   0  0  0  0  0  0  0  0  0  0  0  0
   -1.2990    0.7500    0.0000 O   0  0  0  0  0  0  0  0  0  0  0  0
    1.2990    0.7500    0.0000 C   0  0  0  0  0  0  0  0  0  0  0  0
    2.0490   -0.5490    0.0000 F   0  0  0  0  0  0  0  0  0  0  0  0
    0.5490    2.0490    0.0000 F   0  0  0  0  0  0  0  0  0  0  0  0
    2.5981    1.5000    0.0000 C   0  0  0  0  0  0  0  0  0  0  0  0
    1.8481    2.7990    0.0000 F   0  0  0  0  0  0  0  0  0  0  0  0
    3.3481    0.2010    0.0000 F   0  0  0  0  0  0  0  0  0  0  0  0
    3.8971    2.2500    0.0000 C   0  0  0  0  0  0  0  0  0  0  0  0
    5.1962    3.0000    0.0000 F   0  0  0  0  0  0  0  0  0  0  0  0
    4.6471    0.9510    0.0000 F   0  0  0  0  0  0  0  0  0  0  0  0
    3.1471    3.5490    0.0000 F   0  0  0  0  0  0  0  0  0  0  0  0
    0.0000    4.5490    0.0000 N   0  0  0  0  0  0  0  0  0  0  0  0
  1  2  2  0
  2  3  1  0
  2  4  1  0
  4  5  1  0
  4  6  1  0
  4  7  1  0
  7  8  1  0
  7  9  1  0
  7 10  1  0
 10 11  1  0
 10 12  1  0
 10 13  1  0
M  CHG  2   3  -1  14   1
M  END
$$$$

     RDKit          2D

 26 24  0  0  0  0  0  0  0  0999 V2000
   -2.5981    1.5000    0.0000 O   0  0  0  0  0  0  0  0  0  0  0  0
   -1.2990    0.7500    0.0000 P   0  0  0  0  0  0  0  0  0  0  0  0
   -2.0490   -0.5490    0.0000 O   0  0  0  0  0  0  0  0  0  0  0  0
   -0.5490    2.0490    0.0000 O   0  0  0  0  0  0  0  0  0  0  0  0
    0.0000    0.0000    0.0000 C   0  0  0  0  0  0  0  0  0  0  0  0
    1.2990    0.7500    0.0000 C   0  0  0  0  0  0  0  0  0  0  0  0
    2.5981   -0.0000    0.0000 C   0  0  0  0  0  0  0  0  0  0  0  0
    3.3481    1.2990    0.0000 F   0  0  0  0  0  0  0  0  0  0  0  0
    1.8481   -1.2990    0.0000 F   0  0  0  0  0  0  0  0  0  0  0  0
    3.8971   -0.7500    0.0000 C   0  0  0  0  0  0  0  0  0  0  0  0
    3.1471   -2.0490    0.0000 F   0  0  0  0  0  0  0  0  0  0  0  0
    4.6471    0.5490    0.0000 F   0  0  0  0  0  0  0  0  0  0  0  0
    5.1962   -1.5000    0.0000 C   0  0  0  0  0  0  0  0  0  0  0  0
    5.9462   -0.2010    0.0000 F   0  0  0  0  0  0  0  0  0  0  0  0
    4.4462   -2.7990    0.0000 F   0  0  0  0  0  0  0  0  0  0  0  0
    6.4952   -2.2500    0.0000 C   0  0  0  0  0  0  0  0  0  0  0  0
    5.7452   -3.5490    0.0000 F   0  0  0  0  0  0  0  0  0  0  0  0
    7.2452   -0.9510    0.0000 F   0  0  0  0  0  0  0  0  0  0  0  0
    7.7942   -3.0000    0.0000 C   0  0  0  0  0  0  0  0  0  0  0  0
    8.5442   -1.7010    0.0000 F   0  0  0  0  0  0  0  0  0  0  0  0
    7.0442   -4.2990    0.0000 F   0  0  0  0  0  0  0  0  0  0  0  0
    9.0933   -3.7500    0.0000 C   0  0  0  0  0  0  0  0  0  0  0  0
   10.3923   -4.5000    0.0000 F   0  0  0  0  0  0  0  0  0  0  0  0
    8.3433   -5.0490    0.0000 F   0  0  0  0  0  0  0  0  0  0  0  0
    9.8433   -2.4510    0.0000 F   0  0  0  0  0  0  0  0  0  0  0  0
    0.0000    3.0490    0.0000 Na  0  0  0  0  0 15  0  0  0  0  0  0
  1  2  2  0
  2  3  1  0
  2  4  1  0
  2  5  1  0
  5  6  1  0
  6  7  1  0
  7  8  1  0
  7  9  1  0
  7 10  1  0
 10 11  1  0
 10 12  1  0
 10 13  1  0
 13 14  1  0
 13 15  1  0
 13 16  1  0
 16 17  1  0
 16 18  1  0
 16 19  1  0
 19 20  1  0
 19 21  1  0
 19 22  1  0
 22 23  1  0
 22 24  1  0
 22 25  1  0
M  CHG  2   3  -1  26   1
M  END
$$$$

     RDKit          2D

162162  0  0  0  0  0  0  0  0999 V2000
   12.9907    9.6418    0.0000 F   0  0  0  0  0  0  0  0  0  0  0  0
   13.2511    8.1646    0.0000 C   0  0  0  0  0  0  0  0  0  0  0  0
   14.6607    7.6516    0.0000 F   0  0  0  0  0  0  0  0  0  0  0  0
   12.1021    7.2004    0.0000 C   0  0  0  0  0  0  0  0  0  0  0  0
   11.1379    8.3495    0.0000 F   0  0  0  0  0  0  0  0  0  0  0  0
   13.0663    6.0514    0.0000 F   0  0  0  0  0  0  0  0  0  0  0  0
   10.9530    6.2362    0.0000 C   0  0  0  0  0  0  0  0  0  0  0  0
   11.9172    5.0872    0.0000 F   0  0  0  0  0  0  0  0  0  0  0  0
    9.9888    7.3853    0.0000 F   0  0  0  0  0  0  0  0  0  0  0  0
    9.8039    5.2721    0.0000 C   0  0  0  0  0  0  0  0  0  0  0  0
    8.8398    6.4211    0.0000 F   0  0  0  0  0  0  0  0  0  0  0  0
   10.7681    4.1230    0.0000 F   0  0  0  0  0  0  0  0  0  0  0  0
    8.6549    4.3079    0.0000 C   0  0  0  0  0  0  0  0  0  0  0  0
    7.6907    5.4569    0.0000 F   0  0  0  0  0  0  0  0  0  0  0  0
    9.6191    3.1588    0.0000 F   0  0  0  0  0  0  0  0  0  0  0  0
    7.5058    3.3437    0.0000 C   0  0  0  0  0  0  0  0  0  0  0  0
    8.4700    2.1946    0.0000 F   0  0  0  0  0  0  0  0  0  0  0  0
    6.5416    4.4928    0.0000 F   0  0  0  0  0  0  0  0  0  0  0  0
    6.3567    2.3795    0.0000 C   0  0  0  0  0  0  0  0  0  0  0  0
    5.3926    3.5286    0.0000 F   0  0  0  0  0  0  0  0  0  0  0  0
    7.3209    1.2304    0.0000 F   0  0  0  0  0  0  0  0  0  0  0  0
    5.2077    1.4153    0.0000 C   0  0  0  0  0  0  0  0  0  0  0  0
    6.1719    0.2663    0.0000 F   0  0  0  0  0  0  0  0  0  0  0  0
    4.2435    2.5644    0.0000 F   0  0  0  0  0  0  0  0  0  0  0  0
    4.0586    0.4512    0.0000 C   0  0  0  0  0  0  0  0  0  0  0  0
    2.6491    0.9642    0.0000 O   0  0  0  0  0  0  0  0  0  0  0  0
    1.5000    0.0000    0.0000 P   0  0  0  0  0  0  0  0  0  0  0  0
    2.6491   -0.9642    0.0000 O   0  0  0  0  0  0  0  0  0  0  0  0
    2.3886   -2.4414    0.0000 C   0  0  0  0  0  0  0  0  0  0  0  0
    3.5377   -3.4056    0.0000 C   0  0  0  0  0  0  0  0  0  0  0  0
    2.5735   -4.5546    0.0000 F   0  0  0  0  0  0  0  0  0  0  0  0
    4.5018   -2.2565    0.0000 F   0  0  0  0  0  0  0  0  0  0  0  0
    4.6867   -4.3698    0.0000 C   0  0  0  0  0  0  0  0  0  0  0  0
    5.6509   -3.2207    0.0000 F   0  0  0  0  0  0  0  0  0  0  0  0
    3.7225   -5.5188    0.0000 F   0  0  0  0  0  0  0  0  0  0  0  0
    5.8358   -5.3339    0.0000 C   0  0  0  0  0  0  0  0  0  0  0  0
    4.8716   -6.4830    0.0000 F   0  0  0  0  0  0  0  0  0  0  0  0
    6.8000   -4.1849    0.0000 F   0  0  0  0  0  0  0  0  0  0  0  0
    6.9849   -6.2981    0.0000 C   0  0  0  0  0  0  0  0  0  0  0  0
    7.9490   -5.1491    0.0000 F   0  0  0  0  0  0  0  0  0  0  0  0
    6.0207   -7.4472    0.0000 F   0  0  0  0  0  0  0  0  0  0  0  0
    8.1339   -7.2623    0.0000 C   0  0  0  0  0  0  0  0  0  0  0  0
    9.0981   -6.1132    0.0000 F   0  0  0  0  0  0  0  0  0  0  0  0
    7.1697   -8.4114    0.0000 F   0  0  0  0  0  0  0  0  0  0  0  0
    9.2830   -8.2265    0.0000 C   0  0  0  0  0  0  0  0  0  0  0  0
    8.3188   -9.3755    0.0000 F   0  0  0  0  0  0  0  0  0  0  0  0
   10.2472   -7.0774    0.0000 F   0  0  0  0  0  0  0  0  0  0  0  0
   10.4321   -9.1907    0.0000 C   0  0  0  0  0  0  0  0  0  0  0  0
   11.3962   -8.0416    0.0000 F   0  0  0  0  0  0  0  0  0  0  0  0
    9.4679  -10.3397    0.0000 F   0  0  0  0  0  0  0  0  0  0  0  0
   11.5811  -10.1548    0.0000 C   0  0  0  0  0  0  0  0  0  0  0  0
   12.9907   -9.6418    0.0000 F   0  0  0  0  0  0  0  0  0  0  0  0
   11.3207  -11.6321    0.0000 F   0  0  0  0  0  0  0  0  0  0  0  0
    0.7500   -1.2990    0.0000 N   0  0  0  0  0  0  0  0  0  0  0  0
   -0.7500   -1.2990    0.0000 P   0  0  0  0  0  0  0  0  0  0  0  0
   -0.4895   -2.7762    0.0000 O   0  0  0  0  0  0  0  0  0  0  0  0
   -1.6386   -3.7404    0.0000 C   0  0  0  0  0  0  0  0  0  0  0  0
   -1.3781   -5.2176    0.0000 C   0  0  0  0  0  0  0  0  0  0  0  0
   -2.8553   -5.4781    0.0000 F   0  0  0  0  0  0  0  0  0  0  0  0
    0.0991   -4.9572    0.0000 F   0  0  0  0  0  0  0  0  0  0  0  0
   -1.1176   -6.6949    0.0000 C   0  0  0  0  0  0  0  0  0  0  0  0
    0.3596   -6.4344    0.0000 F   0  0  0  0  0  0  0  0  0  0  0  0
   -2.5949   -6.9553    0.0000 F   0  0  0  0  0  0  0  0  0  0  0  0
   -0.8572   -8.1721    0.0000 C   0  0  0  0  0  0  0  0  0  0  0  0
   -2.3344   -8.4325    0.0000 F   0  0  0  0  0  0  0  0  0  0  0  0
    0.6200   -7.9116    0.0000 F   0  0  0  0  0  0  0  0  0  0  0  0
   -0.5967   -9.6493    0.0000 C   0  0  0  0  0  0  0  0  0  0  0  0
    0.8805   -9.3888    0.0000 F   0  0  0  0  0  0  0  0  0  0  0  0
   -2.0739   -9.9097    0.0000 F   0  0  0  0  0  0  0  0  0  0  0  0
   -0.3362  -11.1265    0.0000 C   0  0  0  0  0  0  0  0  0  0  0  0
    1.1410  -10.8660    0.0000 F   0  0  0  0  0  0  0  0  0  0  0  0
   -1.8134  -11.3870    0.0000 F   0  0  0  0  0  0  0  0  0  0  0  0
   -0.0758  -12.6037    0.0000 C   0  0  0  0  0  0  0  0  0  0  0  0
   -1.5530  -12.8642    0.0000 F   0  0  0  0  0  0  0  0  0  0  0  0
    1.4015  -12.3432    0.0000 F   0  0  0  0  0  0  0  0  0  0  0  0
    0.1847  -14.0809    0.0000 C   0  0  0  0  0  0  0  0  0  0  0  0
    1.6619  -13.8204    0.0000 F   0  0  0  0  0  0  0  0  0  0  0  0
   -1.2925  -14.3414    0.0000 F   0  0  0  0  0  0  0  0  0  0  0  0
    0.4452  -15.5581    0.0000 C   0  0  0  0  0  0  0  0  0  0  0  0
    1.8547  -16.0712    0.0000 F   0  0  0  0  0  0  0  0  0  0  0  0
   -0.7039  -16.5223    0.0000 F   0  0  0  0  0  0  0  0  0  0  0  0
   -2.1595   -1.8121    0.0000 O   0  0  0  0  0  0  0  0  0  0  0  0
   -3.3086   -0.8479    0.0000 C   0  0  0  0  0  0  0  0  0  0  0  0
   -4.7181   -1.3609    0.0000 C   0  0  0  0  0  0  0  0  0  0  0  0
   -5.2312    0.0486    0.0000 F   0  0  0  0  0  0  0  0  0  0  0  0
   -4.2051   -2.7705    0.0000 F   0  0  0  0  0  0  0  0  0  0  0  0
   -6.1277   -1.8739    0.0000 C   0  0  0  0  0  0  0  0  0  0  0  0
   -5.6147   -3.2835    0.0000 F   0  0  0  0  0  0  0  0  0  0  0  0
   -6.6407   -0.4644    0.0000 F   0  0  0  0  0  0  0  0  0  0  0  0
   -7.5372   -2.3870    0.0000 C   0  0  0  0  0  0  0  0  0  0  0  0
   -8.0503   -0.9774    0.0000 F   0  0  0  0  0  0  0  0  0  0  0  0
   -7.0242   -3.7965    0.0000 F   0  0  0  0  0  0  0  0  0  0  0  0
   -8.9468   -2.9000    0.0000 C   0  0  0  0  0  0  0  0  0  0  0  0
   -8.4337   -4.3095    0.0000 F   0  0  0  0  0  0  0  0  0  0  0  0
   -9.4598   -1.4905    0.0000 F   0  0  0  0  0  0  0  0  0  0  0  0
  -10.3563   -3.4130    0.0000 C   0  0  0  0  0  0  0  0  0  0  0  0
   -9.8433   -4.8226    0.0000 F   0  0  0  0  0  0  0  0  0  0  0  0
  -10.8693   -2.0035    0.0000 F   0  0  0  0  0  0  0  0  0  0  0  0
  -11.7658   -3.9261    0.0000 C   0  0  0  0  0  0  0  0  0  0  0  0
  -12.2789   -2.5165    0.0000 F   0  0  0  0  0  0  0  0  0  0  0  0
  -11.2528   -5.3356    0.0000 F   0  0  0  0  0  0  0  0  0  0  0  0
  -13.1754   -4.4391    0.0000 C   0  0  0  0  0  0  0  0  0  0  0  0
  -12.6623   -5.8486    0.0000 F   0  0  0  0  0  0  0  0  0  0  0  0
  -13.6884   -3.0296    0.0000 F   0  0  0  0  0  0  0  0  0  0  0  0
  -14.5849   -4.9521    0.0000 C   0  0  0  0  0  0  0  0  0  0  0  0
  -14.8454   -6.4293    0.0000 F   0  0  0  0  0  0  0  0  0  0  0  0
  -15.7340   -3.9879    0.0000 F   0  0  0  0  0  0  0  0  0  0  0  0
   -1.5000    0.0000    0.0000 N   0  0  0  0  0  0  0  0  0  0  0  0
   -0.7500    1.2990    0.0000 P   0  0  0  0  0  0  0  0  0  0  0  0
   -2.1595    1.8121    0.0000 O   0  0  0  0  0  0  0  0  0  0  0  0
   -2.4200    3.2893    0.0000 C   0  0  0  0  0  0  0  0  0  0  0  0
   -3.8296    3.8023    0.0000 C   0  0  0  0  0  0  0  0  0  0  0  0
   -3.3165    5.2118    0.0000 F   0  0  0  0  0  0  0  0  0  0  0  0
   -4.3426    2.3928    0.0000 F   0  0  0  0  0  0  0  0  0  0  0  0
   -5.2391    4.3153    0.0000 C   0  0  0  0  0  0  0  0  0  0  0  0
   -5.7521    2.9058    0.0000 F   0  0  0  0  0  0  0  0  0  0  0  0
   -4.7261    5.7249    0.0000 F   0  0  0  0  0  0  0  0  0  0  0  0
   -6.6486    4.8284    0.0000 C   0  0  0  0  0  0  0  0  0  0  0  0
   -6.1356    6.2379    0.0000 F   0  0  0  0  0  0  0  0  0  0  0  0
   -7.1617    3.4188    0.0000 F   0  0  0  0  0  0  0  0  0  0  0  0
   -8.0582    5.3414    0.0000 C   0  0  0  0  0  0  0  0  0  0  0  0
   -8.5712    3.9319    0.0000 F   0  0  0  0  0  0  0  0  0  0  0  0
   -7.5451    6.7509    0.0000 F   0  0  0  0  0  0  0  0  0  0  0  0
   -9.4677    5.8544    0.0000 C   0  0  0  0  0  0  0  0  0  0  0  0
   -9.9807    4.4449    0.0000 F   0  0  0  0  0  0  0  0  0  0  0  0
   -8.9547    7.2640    0.0000 F   0  0  0  0  0  0  0  0  0  0  0  0
  -10.8772    6.3675    0.0000 C   0  0  0  0  0  0  0  0  0  0  0  0
  -10.3642    7.7770    0.0000 F   0  0  0  0  0  0  0  0  0  0  0  0
  -11.3903    4.9579    0.0000 F   0  0  0  0  0  0  0  0  0  0  0  0
  -12.2868    6.8805    0.0000 C   0  0  0  0  0  0  0  0  0  0  0  0
  -12.7998    5.4710    0.0000 F   0  0  0  0  0  0  0  0  0  0  0  0
  -11.7738    8.2900    0.0000 F   0  0  0  0  0  0  0  0  0  0  0  0
  -13.6963    7.3935    0.0000 C   0  0  0  0  0  0  0  0  0  0  0  0
  -14.8454    6.4293    0.0000 F   0  0  0  0  0  0  0  0  0  0  0  0
  -13.9568    8.8707    0.0000 F   0  0  0  0  0  0  0  0  0  0  0  0
   -0.4895    2.7762    0.0000 O   0  0  0  0  0  0  0  0  0  0  0  0
    0.9200    3.2893    0.0000 C   0  0  0  0  0  0  0  0  0  0  0  0
    1.1805    4.7665    0.0000 C   0  0  0  0  0  0  0  0  0  0  0  0
    2.6577    4.5060    0.0000 F   0  0  0  0  0  0  0  0  0  0  0  0
   -0.2967    5.0270    0.0000 F   0  0  0  0  0  0  0  0  0  0  0  0
    1.4410    6.2437    0.0000 C   0  0  0  0  0  0  0  0  0  0  0  0
   -0.0363    6.5042    0.0000 F   0  0  0  0  0  0  0  0  0  0  0  0
    2.9182    5.9832    0.0000 F   0  0  0  0  0  0  0  0  0  0  0  0
    1.7014    7.7209    0.0000 C   0  0  0  0  0  0  0  0  0  0  0  0
    3.1786    7.4604    0.0000 F   0  0  0  0  0  0  0  0  0  0  0  0
    0.2242    7.9814    0.0000 F   0  0  0  0  0  0  0  0  0  0  0  0
    1.9619    9.1981    0.0000 C   0  0  0  0  0  0  0  0  0  0  0  0
    0.4847    9.4586    0.0000 F   0  0  0  0  0  0  0  0  0  0  0  0
    3.4391    8.9377    0.0000 F   0  0  0  0  0  0  0  0  0  0  0  0
    2.2224   10.6753    0.0000 C   0  0  0  0  0  0  0  0  0  0  0  0
    0.7452   10.9358    0.0000 F   0  0  0  0  0  0  0  0  0  0  0  0
    3.6996   10.4149    0.0000 F   0  0  0  0  0  0  0  0  0  0  0  0
    2.4828   12.1525    0.0000 C   0  0  0  0  0  0  0  0  0  0  0  0
    3.9601   11.8921    0.0000 F   0  0  0  0  0  0  0  0  0  0  0  0
    1.0056   12.4130    0.0000 F   0  0  0  0  0  0  0  0  0  0  0  0
    2.7433   13.6298    0.0000 C   0  0  0  0  0  0  0  0  0  0  0  0
    1.2661   13.8902    0.0000 F   0  0  0  0  0  0  0  0  0  0  0  0
    4.2205   13.3693    0.0000 F   0  0  0  0  0  0  0  0  0  0  0  0
    3.0038   15.1070    0.0000 C   0  0  0  0  0  0  0  0  0  0  0  0
    1.8547   16.0712    0.0000 F   0  0  0  0  0  0  0  0  0  0  0  0
    4.4133   15.6200    0.0000 F   0  0  0  0  0  0  0  0  0  0  0  0
    0.7500    1.2990    0.0000 N   0  0  0  0  0  0  0  0  0  0  0  0
  1  2  1  0
  2  3  1  0
  2  4  1  0
  4  5  1  0
  4  6  1  0
  4  7  1  0
  7  8  1  0
  7  9  1  0
  7 10  1  0
 10 11  1  0
 10 12  1  0
 10 13  1  0
 13 14  1  0
 13 15  1  0
 13 16  1  0
 16 17  1  0
 16 18  1  0
 16 19  1  0
 19 20  1  0
 19 21  1  0
 19 22  1  0
 22 23  1  0
 22 24  1  0
 22 25  1  0
 25 26  1  0
 26 27  1  0
 27 28  1  0
 28 29  1  0
 29 30  1  0
 30 31  1  0
 30 32  1  0
 30 33  1  0
 33 34  1  0
 33 35  1  0
 33 36  1  0
 36 37  1  0
 36 38  1  0
 36 39  1  0
 39 40  1  0
 39 41  1  0
 39 42  1  0
 42 43  1  0
 42 44  1  0
 42 45  1  0
 45 46  1  0
 45 47  1  0
 45 48  1  0
 48 49  1  0
 48 50  1  0
 48 51  1  0
 51 52  1  0
 51 53  1  0
 27 54  2  0
 54 55  1  0
 55 56  1  0
 56 57  1  0
 57 58  1  0
 58 59  1  0
 58 60  1  0
 58 61  1  0
 61 62  1  0
 61 63  1  0
 61 64  1  0
 64 65  1  0
 64 66  1  0
 64 67  1  0
 67 68  1  0
 67 69  1  0
 67 70  1  0
 70 71  1  0
 70 72  1  0
 70 73  1  0
 73 74  1  0
 73 75  1  0
 73 76  1  0
 76 77  1  0
 76 78  1  0
 76 79  1  0
 79 80  1  0
 79 81  1  0
 55 82  1  0
 82 83  1  0
 83 84  1  0
 84 85  1  0
 84 86  1  0
 84 87  1  0
 87 88  1  0
 87 89  1  0
 87 90  1  0
 90 91  1  0
 90 92  1  0
 90 93  1  0
 93 94  1  0
 93 95  1  0
 93 96  1  0
 96 97  1  0
 96 98  1  0
 96 99  1  0
 99100  1  0
 99101  1  0
 99102  1  0
102103  1  0
102104  1  0
102105  1  0
105106  1  0
105107  1  0
 55108  2  0
108109  1  0
109110  1  0
110111  1  0
111112  1  0
112113  1  0
112114  1  0
112115  1  0
115116  1  0
115117  1  0
115118  1  0
118119  1  0
118120  1  0
118121  1  0
121122  1  0
121123  1  0
121124  1  0
124125  1  0
124126  1  0
124127  1  0
127128  1  0
127129  1  0
127130  1  0
130131  1  0
130132  1  0
130133  1  0
133134  1  0
133135  1  0
109136  1  0
136137  1  0
137138  1  0
138139  1  0
138140  1  0
138141  1  0
141142  1  0
141143  1  0
141144  1  0
144145  1  0
144146  1  0
144147  1  0
147148  1  0
147149  1  0
147150  1  0
150151  1  0
150152  1  0
150153  1  0
153154  1  0
153155  1  0
153156  1  0
156157  1  0
156158  1  0
156159  1  0
159160  1  0
159161  1  0
109162  2  0
162 27  1  0
M  END
$$$$

     RDKit          2D

 28 26  0  0  0  0  0  0  0  0999 V2000
    1.2990    2.2500    0.0000 O   0  0  0  0  0  0  0  0  0  0  0  0
    1.2990    0.7500    0.0000 C   0  0  0  0  0  0  0  0  0  0  0  0
    2.5981   -0.0000    0.0000 O   0  0  0  0  0  0  0  0  0  0  0  0
    0.0000    0.0000    0.0000 C   0  0  0  0  0  0  0  0  0  0  0  0
   -1.2990    0.7500    0.0000 C   0  0  0  0  0  0  0  0  0  0  0  0
   -2.5981    0.0000    0.0000 S   0  0  0  0  0  0  0  0  0  0  0  0
   -3.8971    0.7500    0.0000 C   0  0  0  0  0  0  0  0  0  0  0  0
   -5.1962    0.0000    0.0000 C   0  0  0  0  0  0  0  0  0  0  0  0
   -6.4952    0.7500    0.0000 C   0  0  0  0  0  0  0  0  0  0  0  0
   -7.2452   -0.5490    0.0000 F   0  0  0  0  0  0  0  0  0  0  0  0
   -5.7452    2.0490    0.0000 F   0  0  0  0  0  0  0  0  0  0  0  0
   -7.7942    1.5000    0.0000 C   0  0  0  0  0  0  0  0  0  0  0  0
   -7.0442    2.7990    0.0000 F   0  0  0  0  0  0  0  0  0  0  0  0
   -8.5442    0.2010    0.0000 F   0  0  0  0  0  0  0  0  0  0  0  0
   -9.0933    2.2500    0.0000 C   0  0  0  0  0  0  0  0  0  0  0  0
   -9.8433    0.9510    0.0000 F   0  0  0  0  0  0  0  0  0  0  0  0
   -8.3433    3.5490    0.0000 F   0  0  0  0  0  0  0  0  0  0  0  0
  -10.3923    3.0000    0.0000 C   0  0  0  0  0  0  0  0  0  0  0  0
   -9.6423    4.2990    0.0000 F   0  0  0  0  0  0  0  0  0  0  0  0
  -11.1423    1.7010    0.0000 F   0  0  0  0  0  0  0  0  0  0  0  0
  -11.6913    3.7500    0.0000 C   0  0  0  0  0  0  0  0  0  0  0  0
  -12.4413    2.4510    0.0000 F   0  0  0  0  0  0  0  0  0  0  0  0
  -10.9413    5.0490    0.0000 F   0  0  0  0  0  0  0  0  0  0  0  0
  -12.9904    4.5000    0.0000 C   0  0  0  0  0  0  0  0  0  0  0  0
  -14.2894    5.2500    0.0000 F   0  0  0  0  0  0  0  0  0  0  0  0
  -12.2404    5.7990    0.0000 F   0  0  0  0  0  0  0  0  0  0  0  0
  -13.7404    3.2010    0.0000 F   0  0  0  0  0  0  0  0  0  0  0  0
    0.0000    6.7990    0.0000 N   0  0  0  0  0  0  0  0  0  0  0  0
  1  2  2  0
  2  3  1  0
  2  4  1  0
  4  5  1  0
  5  6  1  0
  6  7  1  0
  7  8  1  0
  8  9  1  0
  9 10  1  0
  9 11  1  0
  9 12  1  0
 12 13  1  0
 12 14  1  0
 12 15  1  0
 15 16  1  0
 15 17  1  0
 15 18  1  0
 18 19  1  0
 18 20  1  0
 18 21  1  0
 21 22  1  0
 21 23  1  0
 21 24  1  0
 24 25  1  0
 24 26  1  0
 24 27  1  0
M  CHG  2   3  -1  28   1
M  END
$$$$

     RDKit          2D

 27 26  0  0  0  0  0  0  0  0999 V2000
    1.2990    2.2500    0.0000 O   0  0  0  0  0  0  0  0  0  0  0  0
    1.2990    0.7500    0.0000 C   0  0  0  0  0  0  0  0  0  0  0  0
    2.5981   -0.0000    0.0000 O   0  0  0  0  0  0  0  0  0  0  0  0
    0.0000    0.0000    0.0000 C   0  0  0  0  0  0  0  0  0  0  0  0
   -1.2990    0.7500    0.0000 C   0  0  0  0  0  0  0  0  0  0  0  0
   -2.5981    0.0000    0.0000 S   0  0  0  0  0  0  0  0  0  0  0  0
   -3.8971    0.7500    0.0000 C   0  0  0  0  0  0  0  0  0  0  0  0
   -5.1962    0.0000    0.0000 C   0  0  0  0  0  0  0  0  0  0  0  0
   -6.4952    0.7500    0.0000 C   0  0  0  0  0  0  0  0  0  0  0  0
   -7.2452   -0.5490    0.0000 F   0  0  0  0  0  0  0  0  0  0  0  0
   -5.7452    2.0490    0.0000 F   0  0  0  0  0  0  0  0  0  0  0  0
   -7.7942    1.5000    0.0000 C   0  0  0  0  0  0  0  0  0  0  0  0
   -7.0442    2.7990    0.0000 F   0  0  0  0  0  0  0  0  0  0  0  0
   -8.5442    0.2010    0.0000 F   0  0  0  0  0  0  0  0  0  0  0  0
   -9.0933    2.2500    0.0000 C   0  0  0  0  0  0  0  0  0  0  0  0
   -9.8433    0.9510    0.0000 F   0  0  0  0  0  0  0  0  0  0  0  0
   -8.3433    3.5490    0.0000 F   0  0  0  0  0  0  0  0  0  0  0  0
  -10.3923    3.0000    0.0000 C   0  0  0  0  0  0  0  0  0  0  0  0
   -9.6423    4.2990    0.0000 F   0  0  0  0  0  0  0  0  0  0  0  0
  -11.1423    1.7010    0.0000 F   0  0  0  0  0  0  0  0  0  0  0  0
  -11.6913    3.7500    0.0000 C   0  0  0  0  0  0  0  0  0  0  0  0
  -12.4413    2.4510    0.0000 F   0  0  0  0  0  0  0  0  0  0  0  0
  -10.9413    5.0490    0.0000 F   0  0  0  0  0  0  0  0  0  0  0  0
  -12.9904    4.5000    0.0000 C   0  0  0  0  0  0  0  0  0  0  0  0
  -14.2894    5.2500    0.0000 F   0  0  0  0  0  0  0  0  0  0  0  0
  -12.2404    5.7990    0.0000 F   0  0  0  0  0  0  0  0  0  0  0  0
  -13.7404    3.2010    0.0000 F   0  0  0  0  0  0  0  0  0  0  0  0
  1  2  2  0
  2  3  1  0
  2  4  1  0
  4  5  1  0
  5  6  1  0
  6  7  1  0
  7  8  1  0
  8  9  1  0
  9 10  1  0
  9 11  1  0
  9 12  1  0
 12 13  1  0
 12 14  1  0
 12 15  1  0
 15 16  1  0
 15 17  1  0
 15 18  1  0
 18 19  1  0
 18 20  1  0
 18 21  1  0
 21 22  1  0
 21 23  1  0
 21 24  1  0
 24 25  1  0
 24 26  1  0
 24 27  1  0
M  CHG  1   3  -1
M  END
$$$$

     RDKit          2D

 32 31  0  0  0  0  0  0  0  0999 V2000
    0.0000    0.0000    0.0000 C   0  0  0  0  0  0  0  0  0  0  0  0
    1.2990    0.7500    0.0000 C   0  0  0  0  0  0  0  0  0  0  0  0
    1.2990    2.2500    0.0000 O   0  0  0  0  0  0  0  0  0  0  0  0
    2.5981    3.0000    0.0000 C   0  0  0  0  0  0  0  0  0  0  0  0
    3.8971    2.2500    0.0000 O   0  0  0  0  0  0  0  0  0  0  0  0
    2.5981    4.5000    0.0000 C   0  0  0  0  0  0  0  0  0  0  0  0
    3.8971    5.2500    0.0000 C   0  0  0  0  0  0  0  0  0  0  0  0
    3.8971    6.7500    0.0000 S   0  0  0  0  0  0  0  0  0  0  0  0
    5.1962    7.5000    0.0000 C   0  0  0  0  0  0  0  0  0  0  0  0
    5.1962    9.0000    0.0000 C   0  0  0  0  0  0  0  0  0  0  0  0
    6.4952    9.7500    0.0000 C   0  0  0  0  0  0  0  0  0  0  0  0
    5.7452   11.0490    0.0000 F   0  0  0  0  0  0  0  0  0  0  0  0
    7.2452    8.4510    0.0000 F   0  0  0  0  0  0  0  0  0  0  0  0
    7.7942   10.5000    0.0000 C   0  0  0  0  0  0  0  0  0  0  0  0
    8.5442    9.2010    0.0000 F   0  0  0  0  0  0  0  0  0  0  0  0
    7.0442   11.7990    0.0000 F   0  0  0  0  0  0  0  0  0  0  0  0
    9.0933   11.2500    0.0000 C   0  0  0  0  0  0  0  0  0  0  0  0
    8.3433   12.5490    0.0000 F   0  0  0  0  0  0  0  0  0  0  0  0
    9.8433    9.9510    0.0000 F   0  0  0  0  0  0  0  0  0  0  0  0
   10.3923   12.0000    0.0000 C   0  0  0  0  0  0  0  0  0  0  0  0
   11.1423   10.7010    0.0000 F   0  0  0  0  0  0  0  0  0  0  0  0
    9.6423   13.2990    0.0000 F   0  0  0  0  0  0  0  0  0  0  0  0
   11.6913   12.7500    0.0000 C   0  0  0  0  0  0  0  0  0  0  0  0
   10.9413   14.0490    0.0000 F   0  0  0  0  0  0  0  0  0  0  0  0
   12.4413   11.4510    0.0000 F   0  0  0  0  0  0  0  0  0  0  0  0
   12.9904   13.5000    0.0000 C   0  0  0  0  0  0  0  0  0  0  0  0
   14.2894   14.2500    0.0000 F   0  0  0  0  0  0  0  0  0  0  0  0
   13.7404   12.2010    0.0000 F   0  0  0  0  0  0  0  0  0  0  0  0
   12.2404   14.7990    0.0000 F   0  0  0  0  0  0  0  0  0  0  0  0
    2.5981   -0.0000    0.0000 C   0  0  0  0  0  0  0  0  0  0  0  0
    2.5981   -1.5000    0.0000 O   0  0  0  0  0  0  0  0  0  0  0  0
    3.8971    0.7500    0.0000 O   0  0  0  0  0  0  0  0  0  0  0  0
  1  2  1  0
  2  3  1  0
  3  4  1  0
  4  5  2  0
  4  6  1  0
  6  7  1  0
  7  8  1  0
  8  9  1  0
  9 10  1  0
 10 11  1  0
 11 12  1  0
 11 13  1  0
 11 14  1  0
 14 15  1  0
 14 16  1  0
 14 17  1  0
 17 18  1  0
 17 19  1  0
 17 20  1  0
 20 21  1  0
 20 22  1  0
 20 23  1  0
 23 24  1  0
 23 25  1  0
 23 26  1  0
 26 27  1  0
 26 28  1  0
 26 29  1  0
  2 30  1  0
 30 31  2  0
 30 32  1  0
M  CHG  1  32  -1
M  END
$$$$

     RDKit          2D

 12 11  0  0  0  0  0  0  0  0999 V2000
   -1.2990    0.7500    0.0000 F   0  0  0  0  0  0  0  0  0  0  0  0
    0.0000    0.0000    0.0000 C   0  0  0  0  0  0  0  0  0  0  0  0
    1.2990    0.7500    0.0000 C   0  0  0  0  0  0  0  0  0  0  0  0
    2.0490   -0.5490    0.0000 F   0  0  0  0  0  0  0  0  0  0  0  0
    0.5490    2.0490    0.0000 F   0  0  0  0  0  0  0  0  0  0  0  0
    2.5981    1.5000    0.0000 C   0  0  0  0  0  0  0  0  0  0  0  0
    1.8481    2.7990    0.0000 F   0  0  0  0  0  0  0  0  0  0  0  0
    3.3481    0.2010    0.0000 F   0  0  0  0  0  0  0  0  0  0  0  0
    3.8971    2.2500    0.0000 C   0  0  0  0  0  0  0  0  0  0  0  0
    5.1962    3.0000    0.0000 F   0  0  0  0  0  0  0  0  0  0  0  0
    4.6471    0.9510    0.0000 F   0  0  0  0  0  0  0  0  0  0  0  0
    3.1471    3.5490    0.0000 F   0  0  0  0  0  0  0  0  0  0  0  0
  1  2  1  0
  2  3  1  0
  3  4  1  0
  3  5  1  0
  3  6  1  0
  6  7  1  0
  6  8  1  0
  6  9  1  0
  9 10  1  0
  9 11  1  0
  9 12  1  0
M  END
$$$$

     RDKit          2D

 16 15  0  0  0  0  0  0  0  0999 V2000
    0.0000    0.0000    0.0000 C   0  0  0  0  0  0  0  0  0  0  0  0
    1.2990    0.7500    0.0000 C   0  0  0  0  0  0  0  0  0  0  0  0
    2.5981   -0.0000    0.0000 C   0  0  0  0  0  0  0  0  0  0  0  0
    3.8971    0.7500    0.0000 C   0  0  0  0  0  0  0  0  0  0  0  0
    4.6471   -0.5490    0.0000 F   0  0  0  0  0  0  0  0  0  0  0  0
    3.1471    2.0490    0.0000 F   0  0  0  0  0  0  0  0  0  0  0  0
    5.1962    1.5000    0.0000 C   0  0  0  0  0  0  0  0  0  0  0  0
    4.4462    2.7990    0.0000 F   0  0  0  0  0  0  0  0  0  0  0  0
    5.9462    0.2010    0.0000 F   0  0  0  0  0  0  0  0  0  0  0  0
    6.4952    2.2500    0.0000 C   0  0  0  0  0  0  0  0  0  0  0  0
    7.2452    0.9510    0.0000 F   0  0  0  0  0  0  0  0  0  0  0  0
    5.7452    3.5490    0.0000 F   0  0  0  0  0  0  0  0  0  0  0  0
    7.7942    3.0000    0.0000 C   0  0  0  0  0  0  0  0  0  0  0  0
    9.0933    3.7500    0.0000 F   0  0  0  0  0  0  0  0  0  0  0  0
    7.0442    4.2990    0.0000 F   0  0  0  0  0  0  0  0  0  0  0  0
    8.5442    1.7010    0.0000 F   0  0  0  0  0  0  0  0  0  0  0  0
  1  2  1  0
  2  3  1  0
  3  4  1  0
  4  5  1  0
  4  6  1  0
  4  7  1  0
  7  8  1  0
  7  9  1  0
  7 10  1  0
 10 11  1  0
 10 12  1  0
 10 13  1  0
 13 14  1  0
 13 15  1  0
 13 16  1  0
M  END
$$$$

     RDKit          2D

 19 18  0  0  0  0  0  0  0  0999 V2000
    0.0000    0.0000    0.0000 C   0  0  0  0  0  0  0  0  0  0  0  0
    1.2990    0.7500    0.0000 C   0  0  0  0  0  0  0  0  0  0  0  0
    2.5981   -0.0000    0.0000 C   0  0  0  0  0  0  0  0  0  0  0  0
    3.8971    0.7500    0.0000 C   0  0  0  0  0  0  0  0  0  0  0  0
    5.1962   -0.0000    0.0000 C   0  0  0  0  0  0  0  0  0  0  0  0
    6.4952    0.7500    0.0000 C   0  0  0  0  0  0  0  0  0  0  0  0
    7.7942   -0.0000    0.0000 C   0  0  0  0  0  0  0  0  0  0  0  0
    9.0933    0.7500    0.0000 C   0  0  0  0  0  0  0  0  0  0  0  0
   10.3923   -0.0000    0.0000 C   0  0  0  0  0  0  0  0  0  0  0  0
   11.6913    0.7500    0.0000 C   0  0  0  0  0  0  0  0  0  0  0  0
   12.4413   -0.5490    0.0000 F   0  0  0  0  0  0  0  0  0  0  0  0
   10.9413    2.0490    0.0000 F   0  0  0  0  0  0  0  0  0  0  0  0
   12.9904    1.5000    0.0000 C   0  0  0  0  0  0  0  0  0  0  0  0
   12.2404    2.7990    0.0000 F   0  0  0  0  0  0  0  0  0  0  0  0
   13.7404    0.2010    0.0000 F   0  0  0  0  0  0  0  0  0  0  0  0
   14.2894    2.2500    0.0000 C   0  0  0  0  0  0  0  0  0  0  0  0
   15.5885    3.0000    0.0000 F   0  0  0  0  0  0  0  0  0  0  0  0
   15.0394    0.9510    0.0000 F   0  0  0  0  0  0  0  0  0  0  0  0
   13.5394    3.5490    0.0000 F   0  0  0  0  0  0  0  0  0  0  0  0
  1  2  1  0
  2  3  1  0
  3  4  1  0
  4  5  1  0
  5  6  1  0
  6  7  1  0
  7  8  1  0
  8  9  1  0
  9 10  1  0
 10 11  1  0
 10 12  1  0
 10 13  1  0
 13 14  1  0
 13 15  1  0
 13 16  1  0
 16 17  1  0
 16 18  1  0
 16 19  1  0
M  END
$$$$

     RDKit          2D

 18 17  0  0  0  0  0  0  0  0999 V2000
   -6.4952    3.7500    0.0000 F   0  0  0  0  0  0  0  0  0  0  0  0
   -5.1962    3.0000    0.0000 C   0  0  0  0  0  0  0  0  0  0  0  0
   -4.4462    4.2990    0.0000 F   0  0  0  0  0  0  0  0  0  0  0  0
   -5.9462    1.7010    0.0000 F   0  0  0  0  0  0  0  0  0  0  0  0
   -3.8971    2.2500    0.0000 C   0  0  0  0  0  0  0  0  0  0  0  0
   -4.6471    0.9510    0.0000 F   0  0  0  0  0  0  0  0  0  0  0  0
   -3.1471    3.5490    0.0000 F   0  0  0  0  0  0  0  0  0  0  0  0
   -2.5981    1.5000    0.0000 C   0  0  0  0  0  0  0  0  0  0  0  0
   -1.8481    2.7990    0.0000 F   0  0  0  0  0  0  0  0  0  0  0  0
   -3.3481    0.2010    0.0000 F   0  0  0  0  0  0  0  0  0  0  0  0
   -1.2990    0.7500    0.0000 C   0  0  0  0  0  0  0  0  0  0  0  0
   -2.0490   -0.5490    0.0000 F   0  0  0  0  0  0  0  0  0  0  0  0
   -0.5490    2.0490    0.0000 F   0  0  0  0  0  0  0  0  0  0  0  0
    0.0000    0.0000    0.0000 C   0  0  0  0  0  0  0  0  0  0  0  0
    1.2990    0.7500    0.0000 C   0  0  0  0  0  0  0  0  0  0  0  0
    2.5981   -0.0000    0.0000 C   0  0  0  0  0  0  0  0  0  0  0  0
    3.8971    0.7500    0.0000 C   0  0  0  0  0  0  0  0  0  0  0  0
    5.1962   -0.0000    0.0000 Br  0  0  0  0  0  0  0  0  0  0  0  0
  1  2  1  0
  2  3  1  0
  2  4  1  0
  2  5  1  0
  5  6  1  0
  5  7  1  0
  5  8  1  0
  8  9  1  0
  8 10  1  0
  8 11  1  0
 11 12  1  0
 11 13  1  0
 11 14  1  0
 14 15  1  0
 15 16  1  0
 16 17  1  0
 17 18  1  0
M  END
$$$$

     RDKit          2D

 13 12  0  0  0  0  0  0  0  0999 V2000
    0.0000    0.0000    0.0000 C   0  0  0  0  0  0  0  0  0  0  0  0
    1.2990    0.7500    0.0000 C   0  0  0  0  0  0  0  0  0  0  0  0
    1.2990    2.2500    0.0000 N   0  0  0  0  0  0  0  0  0  0  0  0
    2.5981   -0.0000    0.0000 C   0  0  0  0  0  0  0  0  0  0  0  0
    3.3481    1.2990    0.0000 F   0  0  0  0  0  0  0  0  0  0  0  0
    1.8481   -1.2990    0.0000 F   0  0  0  0  0  0  0  0  0  0  0  0
    3.8971   -0.7500    0.0000 C   0  0  0  0  0  0  0  0  0  0  0  0
    3.1471   -2.0490    0.0000 F   0  0  0  0  0  0  0  0  0  0  0  0
    4.6471    0.5490    0.0000 F   0  0  0  0  0  0  0  0  0  0  0  0
    5.1962   -1.5000    0.0000 C   0  0  0  0  0  0  0  0  0  0  0  0
    6.4952   -2.2500    0.0000 F   0  0  0  0  0  0  0  0  0  0  0  0
    5.9462   -0.2010    0.0000 F   0  0  0  0  0  0  0  0  0  0  0  0
    4.4462   -2.7990    0.0000 F   0  0  0  0  0  0  0  0  0  0  0  0
  1  2  1  0
  2  3  1  0
  2  4  1  0
  4  5  1  0
  4  6  1  0
  4  7  1  0
  7  8  1  0
  7  9  1  0
  7 10  1  0
 10 11  1  0
 10 12  1  0
 10 13  1  0
M  END
$$$$

     RDKit          2D

 22 21  0  0  0  0  0  0  0  0999 V2000
   -3.8971    2.2500    0.0000 F   0  0  0  0  0  0  0  0  0  0  0  0
   -2.5981    1.5000    0.0000 C   0  0  0  0  0  0  0  0  0  0  0  0
   -1.8481    2.7990    0.0000 F   0  0  0  0  0  0  0  0  0  0  0  0
   -3.3481    0.2010    0.0000 F   0  0  0  0  0  0  0  0  0  0  0  0
   -1.2990    0.7500    0.0000 C   0  0  0  0  0  0  0  0  0  0  0  0
   -2.0490   -0.5490    0.0000 F   0  0  0  0  0  0  0  0  0  0  0  0
   -0.5490    2.0490    0.0000 F   0  0  0  0  0  0  0  0  0  0  0  0
    0.0000    0.0000    0.0000 C   0  0  0  0  0  0  0  0  0  0  0  0
    1.2990    0.7500    0.0000 C   0  0  0  0  0  0  0  0  0  0  0  0
    2.5981   -0.0000    0.0000 C   0  0  0  0  0  0  0  0  0  0  0  0
    3.3481    1.2990    0.0000 F   0  0  0  0  0  0  0  0  0  0  0  0
    1.8481   -1.2990    0.0000 F   0  0  0  0  0  0  0  0  0  0  0  0
    3.8971   -0.7500    0.0000 C   0  0  0  0  0  0  0  0  0  0  0  0
    3.1471   -2.0490    0.0000 F   0  0  0  0  0  0  0  0  0  0  0  0
    4.6471    0.5490    0.0000 F   0  0  0  0  0  0  0  0  0  0  0  0
    5.1962   -1.5000    0.0000 C   0  0  0  0  0  0  0  0  0  0  0  0
    5.9462   -0.2010    0.0000 F   0  0  0  0  0  0  0  0  0  0  0  0
    4.4462   -2.7990    0.0000 F   0  0  0  0  0  0  0  0  0  0  0  0
    6.4952   -2.2500    0.0000 C   0  0  0  0  0  0  0  0  0  0  0  0
    7.7942   -3.0000    0.0000 F   0  0  0  0  0  0  0  0  0  0  0  0
    5.7452   -3.5490    0.0000 F   0  0  0  0  0  0  0  0  0  0  0  0
    7.2452   -0.9510    0.0000 F   0  0  0  0  0  0  0  0  0  0  0  0
  1  2  1  0
  2  3  1  0
  2  4  1  0
  2  5  1  0
  5  6  1  0
  5  7  1  0
  5  8  1  0
  8  9  1  0
  9 10  1  0
 10 11  1  0
 10 12  1  0
 10 13  1  0
 13 14  1  0
 13 15  1  0
 13 16  1  0
 16 17  1  0
 16 18  1  0
 16 19  1  0
 19 20  1  0
 19 21  1  0
 19 22  1  0
M  END
$$$$

     RDKit          2D

 25 24  0  0  0  0  0  0  0  0999 V2000
    0.0000    0.0000    0.0000 C   0  0  0  0  0  0  0  0  0  0  0  0
    1.2990    0.7500    0.0000 C   0  0  0  0  0  0  0  0  0  0  0  0
    2.5981   -0.0000    0.0000 C   0  0  0  0  0  0  0  0  0  0  0  0
    3.8971    0.7500    0.0000 C   0  0  0  0  0  0  0  0  0  0  0  0
    5.1962   -0.0000    0.0000 C   0  0  0  0  0  0  0  0  0  0  0  0
    6.4952    0.7500    0.0000 C   0  0  0  0  0  0  0  0  0  0  0  0
    7.7942   -0.0000    0.0000 C   0  0  0  0  0  0  0  0  0  0  0  0
    8.5442    1.2990    0.0000 F   0  0  0  0  0  0  0  0  0  0  0  0
    7.0442   -1.2990    0.0000 F   0  0  0  0  0  0  0  0  0  0  0  0
    9.0933   -0.7500    0.0000 C   0  0  0  0  0  0  0  0  0  0  0  0
    8.3433   -2.0490    0.0000 F   0  0  0  0  0  0  0  0  0  0  0  0
    9.8433    0.5490    0.0000 F   0  0  0  0  0  0  0  0  0  0  0  0
   10.3923   -1.5000    0.0000 C   0  0  0  0  0  0  0  0  0  0  0  0
   11.1423   -0.2010    0.0000 F   0  0  0  0  0  0  0  0  0  0  0  0
    9.6423   -2.7990    0.0000 F   0  0  0  0  0  0  0  0  0  0  0  0
   11.6913   -2.2500    0.0000 C   0  0  0  0  0  0  0  0  0  0  0  0
   10.9413   -3.5490    0.0000 F   0  0  0  0  0  0  0  0  0  0  0  0
   12.4413   -0.9510    0.0000 F   0  0  0  0  0  0  0  0  0  0  0  0
   12.9904   -3.0000    0.0000 C   0  0  0  0  0  0  0  0  0  0  0  0
   13.7404   -1.7010    0.0000 F   0  0  0  0  0  0  0  0  0  0  0  0
   12.2404   -4.2990    0.0000 F   0  0  0  0  0  0  0  0  0  0  0  0
   14.2894   -3.7500    0.0000 C   0  0  0  0  0  0  0  0  0  0  0  0
   15.5885   -4.5000    0.0000 F   0  0  0  0  0  0  0  0  0  0  0  0
   13.5394   -5.0490    0.0000 F   0  0  0  0  0  0  0  0  0  0  0  0
   15.0394   -2.4510    0.0000 F   0  0  0  0  0  0  0  0  0  0  0  0
  1  2  1  0
  2  3  1  0
  3  4  1  0
  4  5  1  0
  5  6  1  0
  6  7  1  0
  7  8  1  0
  7  9  1  0
  7 10  1  0
 10 11  1  0
 10 12  1  0
 10 13  1  0
 13 14  1  0
 13 15  1  0
 13 16  1  0
 16 17  1  0
 16 18  1  0
 16 19  1  0
 19 20  1  0
 19 21  1  0
 19 22  1  0
 22 23  1  0
 22 24  1  0
 22 25  1  0
M  END
$$$$

     RDKit          2D

 15 14  0  0  0  0  0  0  0  0999 V2000
    0.0000    0.0000    0.0000 C   0  0  0  0  0  0  0  0  0  0  0  0
    1.2990    0.7500    0.0000 C   0  0  0  0  0  0  0  0  0  0  0  0
    2.5981   -0.0000    0.0000 C   0  0  0  0  0  0  0  0  0  0  0  0
    3.8971    0.7500    0.0000 C   0  0  0  0  0  0  0  0  0  0  0  0
    3.8971    2.2500    0.0000 O   0  0  0  0  0  0  0  0  0  0  0  0
    5.1962   -0.0000    0.0000 C   0  0  0  0  0  0  0  0  0  0  0  0
    5.9462    1.2990    0.0000 F   0  0  0  0  0  0  0  0  0  0  0  0
    4.4462   -1.2990    0.0000 F   0  0  0  0  0  0  0  0  0  0  0  0
    6.4952   -0.7500    0.0000 C   0  0  0  0  0  0  0  0  0  0  0  0
    5.7452   -2.0490    0.0000 F   0  0  0  0  0  0  0  0  0  0  0  0
    7.2452    0.5490    0.0000 F   0  0  0  0  0  0  0  0  0  0  0  0
    7.7942   -1.5000    0.0000 C   0  0  0  0  0  0  0  0  0  0  0  0
    9.0933   -2.2500    0.0000 F   0  0  0  0  0  0  0  0  0  0  0  0
    8.5442   -0.2010    0.0000 F   0  0  0  0  0  0  0  0  0  0  0  0
    7.0442   -2.7990    0.0000 F   0  0  0  0  0  0  0  0  0  0  0  0
  1  2  1  0
  2  3  1  0
  3  4  1  0
  4  5  2  0
  4  6  1  0
  6  7  1  0
  6  8  1  0
  6  9  1  0
  9 10  1  0
  9 11  1  0
  9 12  1  0
 12 13  1  0
 12 14  1  0
 12 15  1  0
M  END
$$$$

     RDKit          2D

 29 28  0  0  0  0  0  0  0  0999 V2000
    0.0000    0.0000    0.0000 C   0  0  0  0  0  0  0  0  0  0  0  0
    1.2990    0.7500    0.0000 C   0  0  0  0  0  0  0  0  0  0  0  0
    2.5981   -0.0000    0.0000 C   0  0  0  0  0  0  0  0  0  0  0  0
    3.8971    0.7500    0.0000 C   0  0  0  0  0  0  0  0  0  0  0  0
    5.1962   -0.0000    0.0000 C   0  0  0  0  0  0  0  0  0  0  0  0
    6.4952    0.7500    0.0000 C   0  0  0  0  0  0  0  0  0  0  0  0
    7.7942   -0.0000    0.0000 C   0  0  0  0  0  0  0  0  0  0  0  0
    9.0933    0.7500    0.0000 C   0  0  0  0  0  0  0  0  0  0  0  0
   10.3923   -0.0000    0.0000 C   0  0  0  0  0  0  0  0  0  0  0  0
   11.6913    0.7500    0.0000 C   0  0  0  0  0  0  0  0  0  0  0  0
   12.9904   -0.0000    0.0000 C   0  0  0  0  0  0  0  0  0  0  0  0
   14.2894    0.7500    0.0000 C   0  0  0  0  0  0  0  0  0  0  0  0
   15.5885   -0.0000    0.0000 C   0  0  0  0  0  0  0  0  0  0  0  0
   16.8875    0.7500    0.0000 C   0  0  0  0  0  0  0  0  0  0  0  0
   18.1865   -0.0000    0.0000 C   0  0  0  0  0  0  0  0  0  0  0  0
   19.4856    0.7500    0.0000 C   0  0  0  0  0  0  0  0  0  0  0  0
   20.7846   -0.0000    0.0000 C   0  0  0  0  0  0  0  0  0  0  0  0
   21.5346    1.2990    0.0000 F   0  0  0  0  0  0  0  0  0  0  0  0
   20.0346   -1.2990    0.0000 F   0  0  0  0  0  0  0  0  0  0  0  0
   22.0836   -0.7500    0.0000 C   0  0  0  0  0  0  0  0  0  0  0  0
   21.3336   -2.0490    0.0000 F   0  0  0  0  0  0  0  0  0  0  0  0
   22.8336    0.5490    0.0000 F   0  0  0  0  0  0  0  0  0  0  0  0
   23.3827   -1.5000    0.0000 C   0  0  0  0  0  0  0  0  0  0  0  0
   24.1327   -0.2010    0.0000 F   0  0  0  0  0  0  0  0  0  0  0  0
   22.6327   -2.7990    0.0000 F   0  0  0  0  0  0  0  0  0  0  0  0
   24.6817   -2.2500    0.0000 C   0  0  0  0  0  0  0  0  0  0  0  0
   25.9808   -3.0000    0.0000 F   0  0  0  0  0  0  0  0  0  0  0  0
   23.9317   -3.5490    0.0000 F   0  0  0  0  0  0  0  0  0  0  0  0
   25.4317   -0.9510    0.0000 F   0  0  0  0  0  0  0  0  0  0  0  0
  1  2  1  0
  2  3  1  0
  3  4  1  0
  4  5  1  0
  5  6  1  0
  6  7  1  0
  7  8  1  0
  8  9  1  0
  9 10  1  0
 10 11  1  0
 11 12  1  0
 12 13  1  0
 13 14  1  0
 14 15  1  0
 15 16  1  0
 16 17  1  0
 17 18  1  0
 17 19  1  0
 17 20  1  0
 20 21  1  0
 20 22  1  0
 20 23  1  0
 23 24  1  0
 23 25  1  0
 23 26  1  0
 26 27  1  0
 26 28  1  0
 26 29  1  0
M  END
$$$$

     RDKit          2D

 19 18  0  0  0  0  0  0  0  0999 V2000
   -2.5981    1.5000    0.0000 F   0  0  0  0  0  0  0  0  0  0  0  0
   -1.2990    0.7500    0.0000 C   0  0  0  0  0  0  0  0  0  0  0  0
   -2.0490   -0.5490    0.0000 F   0  0  0  0  0  0  0  0  0  0  0  0
   -0.5490    2.0490    0.0000 F   0  0  0  0  0  0  0  0  0  0  0  0
    0.0000    0.0000    0.0000 C   0  0  0  0  0  0  0  0  0  0  0  0
    1.2990    0.7500    0.0000 C   0  0  0  0  0  0  0  0  0  0  0  0
    2.5981   -0.0000    0.0000 C   0  0  0  0  0  0  0  0  0  0  0  0
    3.3481    1.2990    0.0000 F   0  0  0  0  0  0  0  0  0  0  0  0
    1.8481   -1.2990    0.0000 F   0  0  0  0  0  0  0  0  0  0  0  0
    3.8971   -0.7500    0.0000 C   0  0  0  0  0  0  0  0  0  0  0  0
    3.1471   -2.0490    0.0000 F   0  0  0  0  0  0  0  0  0  0  0  0
    4.6471    0.5490    0.0000 F   0  0  0  0  0  0  0  0  0  0  0  0
    5.1962   -1.5000    0.0000 C   0  0  0  0  0  0  0  0  0  0  0  0
    5.9462   -0.2010    0.0000 F   0  0  0  0  0  0  0  0  0  0  0  0
    4.4462   -2.7990    0.0000 F   0  0  0  0  0  0  0  0  0  0  0  0
    6.4952   -2.2500    0.0000 C   0  0  0  0  0  0  0  0  0  0  0  0
    7.7942   -3.0000    0.0000 F   0  0  0  0  0  0  0  0  0  0  0  0
    5.7452   -3.5490    0.0000 F   0  0  0  0  0  0  0  0  0  0  0  0
    7.2452   -0.9510    0.0000 F   0  0  0  0  0  0  0  0  0  0  0  0
  1  2  1  0
  2  3  1  0
  2  4  1  0
  2  5  1  0
  5  6  2  3
  6  7  1  0
  7  8  1  0
  7  9  1  0
  7 10  1  0
 10 11  1  0
 10 12  1  0
 10 13  1  0
 13 14  1  0
 13 15  1  0
 13 16  1  0
 16 17  1  0
 16 18  1  0
 16 19  1  0
M  END
$$$$

     RDKit          2D

 15 14  0  0  0  0  0  0  0  0999 V2000
   -1.2990    0.7500    0.0000 O   0  0  0  0  0  0  0  0  0  0  0  0
    0.0000    0.0000    0.0000 C   0  0  0  0  0  0  0  0  0  0  0  0
    1.2990    0.7500    0.0000 C   0  0  0  0  0  0  0  0  0  0  0  0
    2.5981   -0.0000    0.0000 O   0  0  0  0  0  0  0  0  0  0  0  0
    3.8971    0.7500    0.0000 C   0  0  0  0  0  0  0  0  0  0  0  0
    5.1962   -0.0000    0.0000 C   0  0  0  0  0  0  0  0  0  0  0  0
    5.9462    1.2990    0.0000 F   0  0  0  0  0  0  0  0  0  0  0  0
    4.4462   -1.2990    0.0000 F   0  0  0  0  0  0  0  0  0  0  0  0
    6.4952   -0.7500    0.0000 C   0  0  0  0  0  0  0  0  0  0  0  0
    5.7452   -2.0490    0.0000 F   0  0  0  0  0  0  0  0  0  0  0  0
    7.2452    0.5490    0.0000 F   0  0  0  0  0  0  0  0  0  0  0  0
    7.7942   -1.5000    0.0000 C   0  0  0  0  0  0  0  0  0  0  0  0
    9.0933   -2.2500    0.0000 F   0  0  0  0  0  0  0  0  0  0  0  0
    8.5442   -0.2010    0.0000 F   0  0  0  0  0  0  0  0  0  0  0  0
    7.0442   -2.7990    0.0000 F   0  0  0  0  0  0  0  0  0  0  0  0
  1  2  1  0
  2  3  1  0
  3  4  1  0
  4  5  1  0
  5  6  1  0
  6  7  1  0
  6  8  1  0
  6  9  1  0
  9 10  1  0
  9 11  1  0
  9 12  1  0
 12 13  1  0
 12 14  1  0
 12 15  1  0
M  END
$$$$

     RDKit          2D

 30 29  0  0  0  0  0  0  0  0999 V2000
  -11.6913    6.7500    0.0000 F   0  0  0  0  0  0  0  0  0  0  0  0
  -10.3923    6.0000    0.0000 C   0  0  0  0  0  0  0  0  0  0  0  0
   -9.6423    7.2990    0.0000 F   0  0  0  0  0  0  0  0  0  0  0  0
  -11.1423    4.7010    0.0000 F   0  0  0  0  0  0  0  0  0  0  0  0
   -9.0933    5.2500    0.0000 C   0  0  0  0  0  0  0  0  0  0  0  0
   -9.8433    3.9510    0.0000 F   0  0  0  0  0  0  0  0  0  0  0  0
   -8.3433    6.5490    0.0000 F   0  0  0  0  0  0  0  0  0  0  0  0
   -7.7942    4.5000    0.0000 C   0  0  0  0  0  0  0  0  0  0  0  0
   -7.0442    5.7990    0.0000 F   0  0  0  0  0  0  0  0  0  0  0  0
   -8.5442    3.2010    0.0000 F   0  0  0  0  0  0  0  0  0  0  0  0
   -6.4952    3.7500    0.0000 C   0  0  0  0  0  0  0  0  0  0  0  0
   -7.2452    2.4510    0.0000 F   0  0  0  0  0  0  0  0  0  0  0  0
   -5.7452    5.0490    0.0000 F   0  0  0  0  0  0  0  0  0  0  0  0
   -5.1962    3.0000    0.0000 C   0  0  0  0  0  0  0  0  0  0  0  0
   -4.4462    4.2990    0.0000 F   0  0  0  0  0  0  0  0  0  0  0  0
   -5.9462    1.7010    0.0000 F   0  0  0  0  0  0  0  0  0  0  0  0
   -3.8971    2.2500    0.0000 C   0  0  0  0  0  0  0  0  0  0  0  0
   -4.6471    0.9510    0.0000 F   0  0  0  0  0  0  0  0  0  0  0  0
   -3.1471    3.5490    0.0000 F   0  0  0  0  0  0  0  0  0  0  0  0
   -2.5981    1.5000    0.0000 C   0  0  0  0  0  0  0  0  0  0  0  0
   -1.8481    2.7990    0.0000 F   0  0  0  0  0  0  0  0  0  0  0  0
   -3.3481    0.2010    0.0000 F   0  0  0  0  0  0  0  0  0  0  0  0
   -1.2990    0.7500    0.0000 C   0  0  0  0  0  0  0  0  0  0  0  0
   -2.0490   -0.5490    0.0000 F   0  0  0  0  0  0  0  0  0  0  0  0
   -0.5490    2.0490    0.0000 F   0  0  0  0  0  0  0  0  0  0  0  0
    0.0000    0.0000    0.0000 C   0  0  0  0  0  0  0  0  0  0  0  0
    1.2990    0.7500    0.0000 C   0  0  0  0  0  0  0  0  0  0  0  0
    2.5981   -0.0000    0.0000 C   0  0  0  0  0  0  0  0  0  0  0  0
    3.8971    0.7500    0.0000 C   0  0  0  0  0  0  0  0  0  0  0  0
    5.1962   -0.0000    0.0000 Br  0  0  0  0  0  0  0  0  0  0  0  0
  1  2  1  0
  2  3  1  0
  2  4  1  0
  2  5  1  0
  5  6  1  0
  5  7  1  0
  5  8  1  0
  8  9  1  0
  8 10  1  0
  8 11  1  0
 11 12  1  0
 11 13  1  0
 11 14  1  0
 14 15  1  0
 14 16  1  0
 14 17  1  0
 17 18  1  0
 17 19  1  0
 17 20  1  0
 20 21  1  0
 20 22  1  0
 20 23  1  0
 23 24  1  0
 23 25  1  0
 23 26  1  0
 26 27  1  0
 27 28  1  0
 28 29  1  0
 29 30  1  0
M  END
$$$$

     RDKit          2D

 37 36  0  0  0  0  0  0  0  0999 V2000
   -1.2990    0.7500    0.0000 F   0  0  0  0  0  0  0  0  0  0  0  0
    0.0000    0.0000    0.0000 C   0  0  0  0  0  0  0  0  0  0  0  0
   -0.0000   -1.5000    0.0000 F   0  0  0  0  0  0  0  0  0  0  0  0
    1.2990    0.7500    0.0000 C   0  0  0  0  0  0  0  0  0  0  0  0
    2.0490   -0.5490    0.0000 F   0  0  0  0  0  0  0  0  0  0  0  0
    0.5490    2.0490    0.0000 F   0  0  0  0  0  0  0  0  0  0  0  0
    2.5981    1.5000    0.0000 C   0  0  0  0  0  0  0  0  0  0  0  0
    1.8481    2.7990    0.0000 F   0  0  0  0  0  0  0  0  0  0  0  0
    3.3481    0.2010    0.0000 F   0  0  0  0  0  0  0  0  0  0  0  0
    3.8971    2.2500    0.0000 C   0  0  0  0  0  0  0  0  0  0  0  0
    4.6471    0.9510    0.0000 F   0  0  0  0  0  0  0  0  0  0  0  0
    3.1471    3.5490    0.0000 F   0  0  0  0  0  0  0  0  0  0  0  0
    5.1962    3.0000    0.0000 C   0  0  0  0  0  0  0  0  0  0  0  0
    4.4462    4.2990    0.0000 F   0  0  0  0  0  0  0  0  0  0  0  0
    5.9462    1.7010    0.0000 F   0  0  0  0  0  0  0  0  0  0  0  0
    6.4952    3.7500    0.0000 C   0  0  0  0  0  0  0  0  0  0  0  0
    7.2452    2.4510    0.0000 F   0  0  0  0  0  0  0  0  0  0  0  0
    5.7452    5.0490    0.0000 F   0  0  0  0  0  0  0  0  0  0  0  0
    7.7942    4.5000    0.0000 C   0  0  0  0  0  0  0  0  0  0  0  0
    7.0442    5.7990    0.0000 F   0  0  0  0  0  0  0  0  0  0  0  0
    8.5442    3.2010    0.0000 F   0  0  0  0  0  0  0  0  0  0  0  0
    9.0933    5.2500    0.0000 C   0  0  0  0  0  0  0  0  0  0  0  0
    9.8433    3.9510    0.0000 F   0  0  0  0  0  0  0  0  0  0  0  0
    8.3433    6.5490    0.0000 F   0  0  0  0  0  0  0  0  0  0  0  0
   10.3923    6.0000    0.0000 C   0  0  0  0  0  0  0  0  0  0  0  0
    9.6423    7.2990    0.0000 F   0  0  0  0  0  0  0  0  0  0  0  0
   11.1423    4.7010    0.0000 F   0  0  0  0  0  0  0  0  0  0  0  0
   11.6913    6.7500    0.0000 C   0  0  0  0  0  0  0  0  0  0  0  0
   12.4413    5.4510    0.0000 F   0  0  0  0  0  0  0  0  0  0  0  0
   10.9413    8.0490    0.0000 F   0  0  0  0  0  0  0  0  0  0  0  0
   12.9904    7.5000    0.0000 C   0  0  0  0  0  0  0  0  0  0  0  0
   12.2404    8.7990    0.0000 F   0  0  0  0  0  0  0  0  0  0  0  0
   13.7404    6.2010    0.0000 F   0  0  0  0  0  0  0  0  0  0  0  0
   14.2894    8.2500    0.0000 C   0  0  0  0  0  0  0  0  0  0  0  0
   15.5885    9.0000    0.0000 F   0  0  0  0  0  0  0  0  0  0  0  0
   15.0394    6.9510    0.0000 F   0  0  0  0  0  0  0  0  0  0  0  0
   13.5394    9.5490    0.0000 F   0  0  0  0  0  0  0  0  0  0  0  0
  1  2  1  0
  2  3  1  0
  2  4  1  0
  4  5  1  0
  4  6  1  0
  4  7  1  0
  7  8  1  0
  7  9  1  0
  7 10  1  0
 10 11  1  0
 10 12  1  0
 10 13  1  0
 13 14  1  0
 13 15  1  0
 13 16  1  0
 16 17  1  0
 16 18  1  0
 16 19  1  0
 19 20  1  0
 19 21  1  0
 19 22  1  0
 22 23  1  0
 22 24  1  0
 22 25  1  0
 25 26  1  0
 25 27  1  0
 25 28  1  0
 28 29  1  0
 28 30  1  0
 28 31  1  0
 31 32  1  0
 31 33  1  0
 31 34  1  0
 34 35  1  0
 34 36  1  0
 34 37  1  0
M  END
$$$$

     RDKit          2D

 34 33  0  0  0  0  0  0  0  0999 V2000
   -6.4952    3.7500    0.0000 F   0  0  0  0  0  0  0  0  0  0  0  0
   -5.1962    3.0000    0.0000 C   0  0  0  0  0  0  0  0  0  0  0  0
   -4.4462    4.2990    0.0000 F   0  0  0  0  0  0  0  0  0  0  0  0
   -5.9462    1.7010    0.0000 F   0  0  0  0  0  0  0  0  0  0  0  0
   -3.8971    2.2500    0.0000 C   0  0  0  0  0  0  0  0  0  0  0  0
   -4.6471    0.9510    0.0000 F   0  0  0  0  0  0  0  0  0  0  0  0
   -3.1471    3.5490    0.0000 F   0  0  0  0  0  0  0  0  0  0  0  0
   -2.5981    1.5000    0.0000 C   0  0  0  0  0  0  0  0  0  0  0  0
   -1.8481    2.7990    0.0000 F   0  0  0  0  0  0  0  0  0  0  0  0
   -3.3481    0.2010    0.0000 F   0  0  0  0  0  0  0  0  0  0  0  0
   -1.2990    0.7500    0.0000 C   0  0  0  0  0  0  0  0  0  0  0  0
   -2.0490   -0.5490    0.0000 F   0  0  0  0  0  0  0  0  0  0  0  0
   -0.5490    2.0490    0.0000 F   0  0  0  0  0  0  0  0  0  0  0  0
    0.0000    0.0000    0.0000 C   0  0  0  0  0  0  0  0  0  0  0  0
    1.2990    0.7500    0.0000 C   0  0  0  0  0  0  0  0  0  0  0  0
    2.5981   -0.0000    0.0000 C   0  0  0  0  0  0  0  0  0  0  0  0
    3.8971    0.7500    0.0000 C   0  0  0  0  0  0  0  0  0  0  0  0
    5.1962   -0.0000    0.0000 C   0  0  0  0  0  0  0  0  0  0  0  0
    6.4952    0.7500    0.0000 C   0  0  0  0  0  0  0  0  0  0  0  0
    7.7942   -0.0000    0.0000 C   0  0  0  0  0  0  0  0  0  0  0  0
    9.0933    0.7500    0.0000 C   0  0  0  0  0  0  0  0  0  0  0  0
   10.3923   -0.0000    0.0000 C   0  0  0  0  0  0  0  0  0  0  0  0
   11.1423    1.2990    0.0000 F   0  0  0  0  0  0  0  0  0  0  0  0
    9.6423   -1.2990    0.0000 F   0  0  0  0  0  0  0  0  0  0  0  0
   11.6913   -0.7500    0.0000 C   0  0  0  0  0  0  0  0  0  0  0  0
   10.9413   -2.0490    0.0000 F   0  0  0  0  0  0  0  0  0  0  0  0
   12.4413    0.5490    0.0000 F   0  0  0  0  0  0  0  0  0  0  0  0
   12.9904   -1.5000    0.0000 C   0  0  0  0  0  0  0  0  0  0  0  0
   13.7404   -0.2010    0.0000 F   0  0  0  0  0  0  0  0  0  0  0  0
   12.2404   -2.7990    0.0000 F   0  0  0  0  0  0  0  0  0  0  0  0
   14.2894   -2.2500    0.0000 C   0  0  0  0  0  0  0  0  0  0  0  0
   15.5885   -3.0000    0.0000 F   0  0  0  0  0  0  0  0  0  0  0  0
   13.5394   -3.5490    0.0000 F   0  0  0  0  0  0  0  0  0  0  0  0
   15.0394   -0.9510    0.0000 F   0  0  0  0  0  0  0  0  0  0  0  0
  1  2  1  0
  2  3  1  0
  2  4  1  0
  2  5  1  0
  5  6  1  0
  5  7  1  0
  5  8  1  0
  8  9  1  0
  8 10  1  0
  8 11  1  0
 11 12  1  0
 11 13  1  0
 11 14  1  0
 14 15  1  0
 15 16  1  0
 16 17  1  0
 17 18  1  0
 18 19  1  0
 19 20  1  0
 20 21  1  0
 21 22  1  0
 22 23  1  0
 22 24  1  0
 22 25  1  0
 25 26  1  0
 25 27  1  0
 25 28  1  0
 28 29  1  0
 28 30  1  0
 28 31  1  0
 31 32  1  0
 31 33  1  0
 31 34  1  0
M  END
$$$$

     RDKit          2D

 21 20  0  0  0  0  0  0  0  0999 V2000
   -0.7500   -1.2990    0.0000 F   0  0  0  0  0  0  0  0  0  0  0  0
    0.0000    0.0000    0.0000 C   0  0  0  0  0  0  0  0  0  0  0  0
    1.5000    0.0000    0.0000 C   0  0  0  0  0  0  0  0  0  0  0  0
    2.2500    1.2990    0.0000 F   0  0  0  0  0  0  0  0  0  0  0  0
    2.2500   -1.2990    0.0000 C   0  0  0  0  0  0  0  0  0  0  0  0
    3.5490   -0.5490    0.0000 F   0  0  0  0  0  0  0  0  0  0  0  0
    0.9510   -2.0490    0.0000 F   0  0  0  0  0  0  0  0  0  0  0  0
    3.0000   -2.5981    0.0000 C   0  0  0  0  0  0  0  0  0  0  0  0
    1.7010   -3.3481    0.0000 F   0  0  0  0  0  0  0  0  0  0  0  0
    4.2990   -1.8481    0.0000 F   0  0  0  0  0  0  0  0  0  0  0  0
    3.7500   -3.8971    0.0000 C   0  0  0  0  0  0  0  0  0  0  0  0
    4.5000   -5.1962    0.0000 F   0  0  0  0  0  0  0  0  0  0  0  0
    5.0490   -3.1471    0.0000 F   0  0  0  0  0  0  0  0  0  0  0  0
    2.4510   -4.6471    0.0000 F   0  0  0  0  0  0  0  0  0  0  0  0
   -0.7500    1.2990    0.0000 C   0  0  0  0  0  0  0  0  0  0  0  0
   -2.0490    0.5490    0.0000 F   0  0  0  0  0  0  0  0  0  0  0  0
    0.5490    2.0490    0.0000 F   0  0  0  0  0  0  0  0  0  0  0  0
   -1.5000    2.5981    0.0000 C   0  0  0  0  0  0  0  0  0  0  0  0
   -2.2500    3.8971    0.0000 F   0  0  0  0  0  0  0  0  0  0  0  0
   -0.2010    3.3481    0.0000 F   0  0  0  0  0  0  0  0  0  0  0  0
   -2.7990    1.8481    0.0000 F   0  0  0  0  0  0  0  0  0  0  0  0
  1  2  1  0
  2  3  2  0
  3  4  1  0
  3  5  1  0
  5  6  1  0
  5  7  1  0
  5  8  1  0
  8  9  1  0
  8 10  1  0
  8 11  1  0
 11 12  1  0
 11 13  1  0
 11 14  1  0
  2 15  1  0
 15 16  1  0
 15 17  1  0
 15 18  1  0
 18 19  1  0
 18 20  1  0
 18 21  1  0
M  END
$$$$

     RDKit          2D

 23 22  0  0  0  0  0  0  0  0999 V2000
   -0.7500   -1.2990    0.0000 F   0  0  0  0  0  0  0  0  0  0  0  0
    0.0000    0.0000    0.0000 C   0  0  0  0  0  0  0  0  0  0  0  0
    1.5000    0.0000    0.0000 C   0  0  0  0  0  0  0  0  0  0  0  0
    2.2500   -1.2990    0.0000 F   0  0  0  0  0  0  0  0  0  0  0  0
    2.2500    1.2990    0.0000 C   0  0  0  0  0  0  0  0  0  0  0  0
    3.5490    0.5490    0.0000 F   0  0  0  0  0  0  0  0  0  0  0  0
    0.9510    2.0490    0.0000 F   0  0  0  0  0  0  0  0  0  0  0  0
    3.0000    2.5981    0.0000 C   0  0  0  0  0  0  0  0  0  0  0  0
    1.7010    3.3481    0.0000 F   0  0  0  0  0  0  0  0  0  0  0  0
    4.2990    1.8481    0.0000 F   0  0  0  0  0  0  0  0  0  0  0  0
    3.7500    3.8971    0.0000 C   0  0  0  0  0  0  0  0  0  0  0  0
    5.0490    3.1471    0.0000 F   0  0  0  0  0  0  0  0  0  0  0  0
    2.4510    4.6471    0.0000 F   0  0  0  0  0  0  0  0  0  0  0  0
    4.5000    5.1962    0.0000 C   0  0  0  0  0  0  0  0  0  0  0  0
    3.2010    5.9462    0.0000 F   0  0  0  0  0  0  0  0  0  0  0  0
    5.7990    4.4462    0.0000 F   0  0  0  0  0  0  0  0  0  0  0  0
    5.2500    6.4952    0.0000 C   0  0  0  0  0  0  0  0  0  0  0  0
    6.5490    5.7452    0.0000 F   0  0  0  0  0  0  0  0  0  0  0  0
    3.9510    7.2452    0.0000 F   0  0  0  0  0  0  0  0  0  0  0  0
    6.0000    7.7942    0.0000 C   0  0  0  0  0  0  0  0  0  0  0  0
    6.7500    9.0933    0.0000 F   0  0  0  0  0  0  0  0  0  0  0  0
    4.7010    8.5442    0.0000 F   0  0  0  0  0  0  0  0  0  0  0  0
    7.2990    7.0442    0.0000 F   0  0  0  0  0  0  0  0  0  0  0  0
  1  2  1  0
  2  3  2  0
  3  4  1  0
  3  5  1  0
  5  6  1  0
  5  7  1  0
  5  8  1  0
  8  9  1  0
  8 10  1  0
  8 11  1  0
 11 12  1  0
 11 13  1  0
 11 14  1  0
 14 15  1  0
 14 16  1  0
 14 17  1  0
 17 18  1  0
 17 19  1  0
 17 20  1  0
 20 21  1  0
 20 22  1  0
 20 23  1  0
M  END
$$$$

     RDKit          2D

 36 35  0  0  0  0  0  0  0  0999 V2000
    0.0000    0.0000    0.0000 C   0  0  0  0  0  0  0  0  0  0  0  0
    1.2990    0.7500    0.0000 C   0  0  0  0  0  0  0  0  0  0  0  0
    2.5981   -0.0000    0.0000 C   0  0  0  0  0  0  0  0  0  0  0  0
    3.8971    0.7500    0.0000 C   0  0  0  0  0  0  0  0  0  0  0  0
    5.1962   -0.0000    0.0000 C   0  0  0  0  0  0  0  0  0  0  0  0
    6.4952    0.7500    0.0000 C   0  0  0  0  0  0  0  0  0  0  0  0
    7.7942   -0.0000    0.0000 C   0  0  0  0  0  0  0  0  0  0  0  0
    9.0933    0.7500    0.0000 C   0  0  0  0  0  0  0  0  0  0  0  0
   10.3923   -0.0000    0.0000 C   0  0  0  0  0  0  0  0  0  0  0  0
   11.6913    0.7500    0.0000 C   0  0  0  0  0  0  0  0  0  0  0  0
   12.9904   -0.0000    0.0000 C   0  0  0  0  0  0  0  0  0  0  0  0
   14.2894    0.7500    0.0000 C   0  0  0  0  0  0  0  0  0  0  0  0
   15.5885   -0.0000    0.0000 C   0  0  0  0  0  0  0  0  0  0  0  0
   16.8875    0.7500    0.0000 C   0  0  0  0  0  0  0  0  0  0  0  0
   18.1865   -0.0000    0.0000 C   0  0  0  0  0  0  0  0  0  0  0  0
   19.4856    0.7500    0.0000 C   0  0  0  0  0  0  0  0  0  0  0  0
   20.7846   -0.0000    0.0000 C   0  0  0  0  0  0  0  0  0  0  0  0
   22.0836    0.7500    0.0000 C   0  0  0  0  0  0  0  0  0  0  0  0
   22.8336   -0.5490    0.0000 F   0  0  0  0  0  0  0  0  0  0  0  0
   21.3336    2.0490    0.0000 F   0  0  0  0  0  0  0  0  0  0  0  0
   23.3827    1.5000    0.0000 C   0  0  0  0  0  0  0  0  0  0  0  0
   22.6327    2.7990    0.0000 F   0  0  0  0  0  0  0  0  0  0  0  0
   24.1327    0.2010    0.0000 F   0  0  0  0  0  0  0  0  0  0  0  0
   24.6817    2.2500    0.0000 C   0  0  0  0  0  0  0  0  0  0  0  0
   25.4317    0.9510    0.0000 F   0  0  0  0  0  0  0  0  0  0  0  0
   23.9317    3.5490    0.0000 F   0  0  0  0  0  0  0  0  0  0  0  0
   25.9808    3.0000    0.0000 C   0  0  0  0  0  0  0  0  0  0  0  0
   25.2308    4.2990    0.0000 F   0  0  0  0  0  0  0  0  0  0  0  0
   26.7308    1.7010    0.0000 F   0  0  0  0  0  0  0  0  0  0  0  0
   27.2798    3.7500    0.0000 C   0  0  0  0  0  0  0  0  0  0  0  0
   28.0298    2.4510    0.0000 F   0  0  0  0  0  0  0  0  0  0  0  0
   26.5298    5.0490    0.0000 F   0  0  0  0  0  0  0  0  0  0  0  0
   28.5788    4.5000    0.0000 C   0  0  0  0  0  0  0  0  0  0  0  0
   29.8779    5.2500    0.0000 F   0  0  0  0  0  0  0  0  0  0  0  0
   27.8288    5.7990    0.0000 F   0  0  0  0  0  0  0  0  0  0  0  0
   29.3288    3.2010    0.0000 F   0  0  0  0  0  0  0  0  0  0  0  0
  1  2  1  0
  2  3  1  0
  3  4  1  0
  4  5  1  0
  5  6  1  0
  6  7  1  0
  7  8  1  0
  8  9  1  0
  9 10  1  0
 10 11  1  0
 11 12  1  0
 12 13  1  0
 13 14  1  0
 14 15  1  0
 15 16  1  0
 16 17  1  0
 17 18  1  0
 18 19  1  0
 18 20  1  0
 18 21  1  0
 21 22  1  0
 21 23  1  0
 21 24  1  0
 24 25  1  0
 24 26  1  0
 24 27  1  0
 27 28  1  0
 27 29  1  0
 27 30  1  0
 30 31  1  0
 30 32  1  0
 30 33  1  0
 33 34  1  0
 33 35  1  0
 33 36  1  0
M  END
$$$$

     RDKit          2D

 35 34  0  0  0  0  0  0  0  0999 V2000
    3.8971    2.2500    0.0000 F   0  0  0  0  0  0  0  0  0  0  0  0
    2.5981    1.5000    0.0000 C   0  0  0  0  0  0  0  0  0  0  0  0
    1.8481    2.7990    0.0000 F   0  0  0  0  0  0  0  0  0  0  0  0
    3.3481    0.2010    0.0000 F   0  0  0  0  0  0  0  0  0  0  0  0
    1.2990    0.7500    0.0000 C   0  0  0  0  0  0  0  0  0  0  0  0
    2.0490   -0.5490    0.0000 F   0  0  0  0  0  0  0  0  0  0  0  0
    0.5490    2.0490    0.0000 F   0  0  0  0  0  0  0  0  0  0  0  0
    0.0000    0.0000    0.0000 C   0  0  0  0  0  0  0  0  0  0  0  0
   -1.2990    0.7500    0.0000 C   0  0  0  0  0  0  0  0  0  0  0  0
   -1.2990    2.2500    0.0000 I   0  0  0  0  0  0  0  0  0  0  0  0
   -2.5981    0.0000    0.0000 C   0  0  0  0  0  0  0  0  0  0  0  0
   -1.8481   -1.2990    0.0000 F   0  0  0  0  0  0  0  0  0  0  0  0
   -3.3481    1.2990    0.0000 F   0  0  0  0  0  0  0  0  0  0  0  0
   -3.8971   -0.7500    0.0000 C   0  0  0  0  0  0  0  0  0  0  0  0
   -4.6471    0.5490    0.0000 F   0  0  0  0  0  0  0  0  0  0  0  0
   -3.1471   -2.0490    0.0000 F   0  0  0  0  0  0  0  0  0  0  0  0
   -5.1962   -1.5000    0.0000 C   0  0  0  0  0  0  0  0  0  0  0  0
   -4.4462   -2.7990    0.0000 F   0  0  0  0  0  0  0  0  0  0  0  0
   -5.9462   -0.2010    0.0000 F   0  0  0  0  0  0  0  0  0  0  0  0
   -6.4952   -2.2500    0.0000 C   0  0  0  0  0  0  0  0  0  0  0  0
   -7.2452   -0.9510    0.0000 F   0  0  0  0  0  0  0  0  0  0  0  0
   -5.7452   -3.5490    0.0000 F   0  0  0  0  0  0  0  0  0  0  0  0
   -7.7942   -3.0000    0.0000 C   0  0  0  0  0  0  0  0  0  0  0  0
   -8.5442   -1.7010    0.0000 F   0  0  0  0  0  0  0  0  0  0  0  0
   -7.0442   -4.2990    0.0000 F   0  0  0  0  0  0  0  0  0  0  0  0
   -9.0933   -3.7500    0.0000 C   0  0  0  0  0  0  0  0  0  0  0  0
   -8.3433   -5.0490    0.0000 F   0  0  0  0  0  0  0  0  0  0  0  0
   -9.8433   -2.4510    0.0000 F   0  0  0  0  0  0  0  0  0  0  0  0
  -10.3923   -4.5000    0.0000 C   0  0  0  0  0  0  0  0  0  0  0  0
  -11.1423   -3.2010    0.0000 F   0  0  0  0  0  0  0  0  0  0  0  0
   -9.6423   -5.7990    0.0000 F   0  0  0  0  0  0  0  0  0  0  0  0
  -11.6913   -5.2500    0.0000 C   0  0  0  0  0  0  0  0  0  0  0  0
  -12.9904   -6.0000    0.0000 F   0  0  0  0  0  0  0  0  0  0  0  0
  -10.9413   -6.5490    0.0000 F   0  0  0  0  0  0  0  0  0  0  0  0
  -12.4413   -3.9510    0.0000 F   0  0  0  0  0  0  0  0  0  0  0  0
  1  2  1  0
  2  3  1  0
  2  4  1  0
  2  5  1  0
  5  6  1  0
  5  7  1  0
  5  8  1  0
  8  9  1  0
  9 10  1  0
  9 11  1  0
 11 12  1  0
 11 13  1  0
 11 14  1  0
 14 15  1  0
 14 16  1  0
 14 17  1  0
 17 18  1  0
 17 19  1  0
 17 20  1  0
 20 21  1  0
 20 22  1  0
 20 23  1  0
 23 24  1  0
 23 25  1  0
 23 26  1  0
 26 27  1  0
 26 28  1  0
 26 29  1  0
 29 30  1  0
 29 31  1  0
 29 32  1  0
 32 33  1  0
 32 34  1  0
 32 35  1  0
M  END
$$$$

     RDKit          2D

 25 24  0  0  0  0  0  0  0  0999 V2000
   -1.2990    0.7500    0.0000 O   0  0  0  0  0  0  0  0  0  0  0  0
    0.0000    0.0000    0.0000 C   0  0  0  0  0  0  0  0  0  0  0  0
    1.2990    0.7500    0.0000 C   0  0  0  0  0  0  0  0  0  0  0  0
    2.5981   -0.0000    0.0000 C   0  0  0  0  0  0  0  0  0  0  0  0
    3.3481    1.2990    0.0000 F   0  0  0  0  0  0  0  0  0  0  0  0
    1.8481   -1.2990    0.0000 F   0  0  0  0  0  0  0  0  0  0  0  0
    3.8971   -0.7500    0.0000 C   0  0  0  0  0  0  0  0  0  0  0  0
    3.1471   -2.0490    0.0000 F   0  0  0  0  0  0  0  0  0  0  0  0
    4.6471    0.5490    0.0000 F   0  0  0  0  0  0  0  0  0  0  0  0
    5.1962   -1.5000    0.0000 C   0  0  0  0  0  0  0  0  0  0  0  0
    5.9462   -0.2010    0.0000 F   0  0  0  0  0  0  0  0  0  0  0  0
    4.4462   -2.7990    0.0000 F   0  0  0  0  0  0  0  0  0  0  0  0
    6.4952   -2.2500    0.0000 C   0  0  0  0  0  0  0  0  0  0  0  0
    5.7452   -3.5490    0.0000 F   0  0  0  0  0  0  0  0  0  0  0  0
    7.2452   -0.9510    0.0000 F   0  0  0  0  0  0  0  0  0  0  0  0
    7.7942   -3.0000    0.0000 C   0  0  0  0  0  0  0  0  0  0  0  0
    8.5442   -1.7010    0.0000 F   0  0  0  0  0  0  0  0  0  0  0  0
    7.0442   -4.2990    0.0000 F   0  0  0  0  0  0  0  0  0  0  0  0
    9.0933   -3.7500    0.0000 C   0  0  0  0  0  0  0  0  0  0  0  0
    8.3433   -5.0490    0.0000 F   0  0  0  0  0  0  0  0  0  0  0  0
    9.8433   -2.4510    0.0000 F   0  0  0  0  0  0  0  0  0  0  0  0
   10.3923   -4.5000    0.0000 C   0  0  0  0  0  0  0  0  0  0  0  0
   11.6913   -5.2500    0.0000 F   0  0  0  0  0  0  0  0  0  0  0  0
   11.1423   -3.2010    0.0000 F   0  0  0  0  0  0  0  0  0  0  0  0
    9.6423   -5.7990    0.0000 F   0  0  0  0  0  0  0  0  0  0  0  0
  1  2  1  0
  2  3  1  0
  3  4  1  0
  4  5  1  0
  4  6  1  0
  4  7  1  0
  7  8  1  0
  7  9  1  0
  7 10  1  0
 10 11  1  0
 10 12  1  0
 10 13  1  0
 13 14  1  0
 13 15  1  0
 13 16  1  0
 16 17  1  0
 16 18  1  0
 16 19  1  0
 19 20  1  0
 19 21  1  0
 19 22  1  0
 22 23  1  0
 22 24  1  0
 22 25  1  0
M  END
$$$$

     RDKit          2D

 40 39  0  0  0  0  0  0  0  0999 V2000
    0.0000    0.0000    0.0000 C   0  0  0  0  0  0  0  0  0  0  0  0
    1.2990    0.7500    0.0000 C   0  0  0  0  0  0  0  0  0  0  0  0
    2.5981   -0.0000    0.0000 C   0  0  0  0  0  0  0  0  0  0  0  0
    3.8971    0.7500    0.0000 C   0  0  0  0  0  0  0  0  0  0  0  0
    5.1962   -0.0000    0.0000 C   0  0  0  0  0  0  0  0  0  0  0  0
    6.4952    0.7500    0.0000 C   0  0  0  0  0  0  0  0  0  0  0  0
    7.7942   -0.0000    0.0000 C   0  0  0  0  0  0  0  0  0  0  0  0
    9.0933    0.7500    0.0000 C   0  0  0  0  0  0  0  0  0  0  0  0
   10.3923   -0.0000    0.0000 C   0  0  0  0  0  0  0  0  0  0  0  0
   11.6913    0.7500    0.0000 C   0  0  0  0  0  0  0  0  0  0  0  0
   12.9904   -0.0000    0.0000 C   0  0  0  0  0  0  0  0  0  0  0  0
   14.2894    0.7500    0.0000 C   0  0  0  0  0  0  0  0  0  0  0  0
   15.5885   -0.0000    0.0000 C   0  0  0  0  0  0  0  0  0  0  0  0
   16.8875    0.7500    0.0000 C   0  0  0  0  0  0  0  0  0  0  0  0
   18.1865   -0.0000    0.0000 C   0  0  0  0  0  0  0  0  0  0  0  0
   19.4856    0.7500    0.0000 C   0  0  0  0  0  0  0  0  0  0  0  0
   20.2356   -0.5490    0.0000 F   0  0  0  0  0  0  0  0  0  0  0  0
   18.7356    2.0490    0.0000 F   0  0  0  0  0  0  0  0  0  0  0  0
   20.7846    1.5000    0.0000 C   0  0  0  0  0  0  0  0  0  0  0  0
   20.0346    2.7990    0.0000 F   0  0  0  0  0  0  0  0  0  0  0  0
   21.5346    0.2010    0.0000 F   0  0  0  0  0  0  0  0  0  0  0  0
   22.0836    2.2500    0.0000 C   0  0  0  0  0  0  0  0  0  0  0  0
   22.8336    0.9510    0.0000 F   0  0  0  0  0  0  0  0  0  0  0  0
   21.3336    3.5490    0.0000 F   0  0  0  0  0  0  0  0  0  0  0  0
   23.3827    3.0000    0.0000 C   0  0  0  0  0  0  0  0  0  0  0  0
   22.6327    4.2990    0.0000 F   0  0  0  0  0  0  0  0  0  0  0  0
   24.1327    1.7010    0.0000 F   0  0  0  0  0  0  0  0  0  0  0  0
   24.6817    3.7500    0.0000 C   0  0  0  0  0  0  0  0  0  0  0  0
   25.4317    2.4510    0.0000 F   0  0  0  0  0  0  0  0  0  0  0  0
   23.9317    5.0490    0.0000 F   0  0  0  0  0  0  0  0  0  0  0  0
   25.9808    4.5000    0.0000 C   0  0  0  0  0  0  0  0  0  0  0  0
   25.2308    5.7990    0.0000 F   0  0  0  0  0  0  0  0  0  0  0  0
   26.7308    3.2010    0.0000 F   0  0  0  0  0  0  0  0  0  0  0  0
   27.2798    5.2500    0.0000 C   0  0  0  0  0  0  0  0  0  0  0  0
   28.0298    3.9510    0.0000 F   0  0  0  0  0  0  0  0  0  0  0  0
   26.5298    6.5490    0.0000 F   0  0  0  0  0  0  0  0  0  0  0  0
   28.5788    6.0000    0.0000 C   0  0  0  0  0  0  0  0  0  0  0  0
   29.8779    6.7500    0.0000 F   0  0  0  0  0  0  0  0  0  0  0  0
   27.8288    7.2990    0.0000 F   0  0  0  0  0  0  0  0  0  0  0  0
   29.3288    4.7010    0.0000 F   0  0  0  0  0  0  0  0  0  0  0  0
  1  2  1  0
  2  3  1  0
  3  4  1  0
  4  5  1  0
  5  6  1  0
  6  7  1  0
  7  8  1  0
  8  9  1  0
  9 10  1  0
 10 11  1  0
 11 12  1  0
 12 13  1  0
 13 14  1  0
 14 15  1  0
 15 16  1  0
 16 17  1  0
 16 18  1  0
 16 19  1  0
 19 20  1  0
 19 21  1  0
 19 22  1  0
 22 23  1  0
 22 24  1  0
 22 25  1  0
 25 26  1  0
 25 27  1  0
 25 28  1  0
 28 29  1  0
 28 30  1  0
 28 31  1  0
 31 32  1  0
 31 33  1  0
 31 34  1  0
 34 35  1  0
 34 36  1  0
 34 37  1  0
 37 38  1  0
 37 39  1  0
 37 40  1  0
M  END
$$$$

     RDKit          2D

 39 38  0  0  0  0  0  0  0  0999 V2000
    0.0000    0.0000    0.0000 C   0  0  0  0  0  0  0  0  0  0  0  0
    1.2990    0.7500    0.0000 C   0  0  0  0  0  0  0  0  0  0  0  0
    2.5981   -0.0000    0.0000 C   0  0  0  0  0  0  0  0  0  0  0  0
    3.8971    0.7500    0.0000 C   0  0  0  0  0  0  0  0  0  0  0  0
    5.1962   -0.0000    0.0000 C   0  0  0  0  0  0  0  0  0  0  0  0
    6.4952    0.7500    0.0000 C   0  0  0  0  0  0  0  0  0  0  0  0
    6.4952    2.2500    0.0000 I   0  0  0  0  0  0  0  0  0  0  0  0
    7.7942   -0.0000    0.0000 C   0  0  0  0  0  0  0  0  0  0  0  0
    9.0933    0.7500    0.0000 C   0  0  0  0  0  0  0  0  0  0  0  0
    9.8433   -0.5490    0.0000 F   0  0  0  0  0  0  0  0  0  0  0  0
    8.3433    2.0490    0.0000 F   0  0  0  0  0  0  0  0  0  0  0  0
   10.3923    1.5000    0.0000 C   0  0  0  0  0  0  0  0  0  0  0  0
    9.6423    2.7990    0.0000 F   0  0  0  0  0  0  0  0  0  0  0  0
   11.1423    0.2010    0.0000 F   0  0  0  0  0  0  0  0  0  0  0  0
   11.6913    2.2500    0.0000 C   0  0  0  0  0  0  0  0  0  0  0  0
   12.4413    0.9510    0.0000 F   0  0  0  0  0  0  0  0  0  0  0  0
   10.9413    3.5490    0.0000 F   0  0  0  0  0  0  0  0  0  0  0  0
   12.9904    3.0000    0.0000 C   0  0  0  0  0  0  0  0  0  0  0  0
   12.2404    4.2990    0.0000 F   0  0  0  0  0  0  0  0  0  0  0  0
   13.7404    1.7010    0.0000 F   0  0  0  0  0  0  0  0  0  0  0  0
   14.2894    3.7500    0.0000 C   0  0  0  0  0  0  0  0  0  0  0  0
   15.0394    2.4510    0.0000 F   0  0  0  0  0  0  0  0  0  0  0  0
   13.5394    5.0490    0.0000 F   0  0  0  0  0  0  0  0  0  0  0  0
   15.5885    4.5000    0.0000 C   0  0  0  0  0  0  0  0  0  0  0  0
   14.8385    5.7990    0.0000 F   0  0  0  0  0  0  0  0  0  0  0  0
   16.3385    3.2010    0.0000 F   0  0  0  0  0  0  0  0  0  0  0  0
   16.8875    5.2500    0.0000 C   0  0  0  0  0  0  0  0  0  0  0  0
   17.6375    3.9510    0.0000 F   0  0  0  0  0  0  0  0  0  0  0  0
   16.1375    6.5490    0.0000 F   0  0  0  0  0  0  0  0  0  0  0  0
   18.1865    6.0000    0.0000 C   0  0  0  0  0  0  0  0  0  0  0  0
   17.4365    7.2990    0.0000 F   0  0  0  0  0  0  0  0  0  0  0  0
   18.9365    4.7010    0.0000 F   0  0  0  0  0  0  0  0  0  0  0  0
   19.4856    6.7500    0.0000 C   0  0  0  0  0  0  0  0  0  0  0  0
   20.2356    5.4510    0.0000 F   0  0  0  0  0  0  0  0  0  0  0  0
   18.7356    8.0490    0.0000 F   0  0  0  0  0  0  0  0  0  0  0  0
   20.7846    7.5000    0.0000 C   0  0  0  0  0  0  0  0  0  0  0  0
   22.0836    8.2500    0.0000 F   0  0  0  0  0  0  0  0  0  0  0  0
   20.0346    8.7990    0.0000 F   0  0  0  0  0  0  0  0  0  0  0  0
   21.5346    6.2010    0.0000 F   0  0  0  0  0  0  0  0  0  0  0  0
  1  2  1  0
  2  3  1  0
  3  4  1  0
  4  5  1  0
  5  6  1  0
  6  7  1  0
  6  8  1  0
  8  9  1  0
  9 10  1  0
  9 11  1  0
  9 12  1  0
 12 13  1  0
 12 14  1  0
 12 15  1  0
 15 16  1  0
 15 17  1  0
 15 18  1  0
 18 19  1  0
 18 20  1  0
 18 21  1  0
 21 22  1  0
 21 23  1  0
 21 24  1  0
 24 25  1  0
 24 26  1  0
 24 27  1  0
 27 28  1  0
 27 29  1  0
 27 30  1  0
 30 31  1  0
 30 32  1  0
 30 33  1  0
 33 34  1  0
 33 35  1  0
 33 36  1  0
 36 37  1  0
 36 38  1  0
 36 39  1  0
M  END
$$$$

     RDKit          2D

 22 21  0  0  0  0  0  0  0  0999 V2000
   -6.7500    3.8971    0.0000 C   0  0  0  0  0  0  0  0  0  0  0  0
   -5.2500    3.8971    0.0000 C   0  0  0  0  0  0  0  0  0  0  0  0
   -4.5000    2.5981    0.0000 C   0  0  0  0  0  0  0  0  0  0  0  0
   -3.0000    2.5981    0.0000 C   0  0  0  0  0  0  0  0  0  0  0  0
   -2.2500    1.2990    0.0000 C   0  0  0  0  0  0  0  0  0  0  0  0
   -0.7500    1.2990    0.0000 C   0  0  0  0  0  0  0  0  0  0  0  0
    0.0000    0.0000    0.0000 C   0  0  0  0  0  0  0  0  0  0  0  0
   -0.7500   -1.2990    0.0000 I   0  0  0  0  0  0  0  0  0  0  0  0
    1.5000    0.0000    0.0000 C   0  0  0  0  0  0  0  0  0  0  0  0
    2.2500    1.2990    0.0000 C   0  0  0  0  0  0  0  0  0  0  0  0
    3.5490    0.5490    0.0000 F   0  0  0  0  0  0  0  0  0  0  0  0
    0.9510    2.0490    0.0000 F   0  0  0  0  0  0  0  0  0  0  0  0
    3.0000    2.5981    0.0000 C   0  0  0  0  0  0  0  0  0  0  0  0
    1.7010    3.3481    0.0000 F   0  0  0  0  0  0  0  0  0  0  0  0
    4.2990    1.8481    0.0000 F   0  0  0  0  0  0  0  0  0  0  0  0
    3.7500    3.8971    0.0000 C   0  0  0  0  0  0  0  0  0  0  0  0
    5.0490    3.1471    0.0000 F   0  0  0  0  0  0  0  0  0  0  0  0
    2.4510    4.6471    0.0000 F   0  0  0  0  0  0  0  0  0  0  0  0
    4.5000    5.1962    0.0000 C   0  0  0  0  0  0  0  0  0  0  0  0
    5.2500    6.4952    0.0000 F   0  0  0  0  0  0  0  0  0  0  0  0
    3.2010    5.9462    0.0000 F   0  0  0  0  0  0  0  0  0  0  0  0
    5.7990    4.4462    0.0000 F   0  0  0  0  0  0  0  0  0  0  0  0
  1  2  1  0
  2  3  1  0
  3  4  1  0
  4  5  1  0
  5  6  1  0
  6  7  1  0
  7  8  1  0
  7  9  2  0
  9 10  1  0
 10 11  1  0
 10 12  1  0
 10 13  1  0
 13 14  1  0
 13 15  1  0
 13 16  1  0
 16 17  1  0
 16 18  1  0
 16 19  1  0
 19 20  1  0
 19 21  1  0
 19 22  1  0
M  END
$$$$

     RDKit          2D

 17 16  0  0  0  0  0  0  0  0999 V2000
   -1.2990    0.7500    0.0000 O   0  0  0  0  0  0  0  0  0  0  0  0
    0.0000    0.0000    0.0000 C   0  0  0  0  0  0  0  0  0  0  0  0
    1.2990    0.7500    0.0000 C   0  0  0  0  0  0  0  0  0  0  0  0
    1.2990    2.2500    0.0000 O   0  0  0  0  0  0  0  0  0  0  0  0
    2.5981   -0.0000    0.0000 C   0  0  0  0  0  0  0  0  0  0  0  0
    3.8971    0.7500    0.0000 O   0  0  0  0  0  0  0  0  0  0  0  0
    5.1962   -0.0000    0.0000 C   0  0  0  0  0  0  0  0  0  0  0  0
    6.4952    0.7500    0.0000 C   0  0  0  0  0  0  0  0  0  0  0  0
    7.2452   -0.5490    0.0000 F   0  0  0  0  0  0  0  0  0  0  0  0
    5.7452    2.0490    0.0000 F   0  0  0  0  0  0  0  0  0  0  0  0
    7.7942    1.5000    0.0000 C   0  0  0  0  0  0  0  0  0  0  0  0
    7.0442    2.7990    0.0000 F   0  0  0  0  0  0  0  0  0  0  0  0
    8.5442    0.2010    0.0000 F   0  0  0  0  0  0  0  0  0  0  0  0
    9.0933    2.2500    0.0000 C   0  0  0  0  0  0  0  0  0  0  0  0
   10.3923    3.0000    0.0000 F   0  0  0  0  0  0  0  0  0  0  0  0
    9.8433    0.9510    0.0000 F   0  0  0  0  0  0  0  0  0  0  0  0
    8.3433    3.5490    0.0000 F   0  0  0  0  0  0  0  0  0  0  0  0
  1  2  1  0
  2  3  1  0
  3  4  1  0
  3  5  1  0
  5  6  1  0
  6  7  1  0
  7  8  1  0
  8  9  1  0
  8 10  1  0
  8 11  1  0
 11 12  1  0
 11 13  1  0
 11 14  1  0
 14 15  1  0
 14 16  1  0
 14 17  1  0
M  END
$$$$

     RDKit          2D

 45 44  0  0  0  0  0  0  0  0999 V2000
    0.0000    0.0000    0.0000 C   0  0  0  0  0  0  0  0  0  0  0  0
    1.2990    0.7500    0.0000 C   0  0  0  0  0  0  0  0  0  0  0  0
    2.5981   -0.0000    0.0000 C   0  0  0  0  0  0  0  0  0  0  0  0
    3.8971    0.7500    0.0000 C   0  0  0  0  0  0  0  0  0  0  0  0
    5.1962   -0.0000    0.0000 C   0  0  0  0  0  0  0  0  0  0  0  0
    6.4952    0.7500    0.0000 C   0  0  0  0  0  0  0  0  0  0  0  0
    7.7942   -0.0000    0.0000 C   0  0  0  0  0  0  0  0  0  0  0  0
    9.0933    0.7500    0.0000 C   0  0  0  0  0  0  0  0  0  0  0  0
   10.3923   -0.0000    0.0000 C   0  0  0  0  0  0  0  0  0  0  0  0
   11.1423    1.2990    0.0000 F   0  0  0  0  0  0  0  0  0  0  0  0
    9.6423   -1.2990    0.0000 F   0  0  0  0  0  0  0  0  0  0  0  0
   11.6913   -0.7500    0.0000 C   0  0  0  0  0  0  0  0  0  0  0  0
   10.9413   -2.0490    0.0000 F   0  0  0  0  0  0  0  0  0  0  0  0
   12.4413    0.5490    0.0000 F   0  0  0  0  0  0  0  0  0  0  0  0
   12.9904   -1.5000    0.0000 C   0  0  0  0  0  0  0  0  0  0  0  0
   13.7404   -0.2010    0.0000 F   0  0  0  0  0  0  0  0  0  0  0  0
   12.2404   -2.7990    0.0000 F   0  0  0  0  0  0  0  0  0  0  0  0
   14.2894   -2.2500    0.0000 C   0  0  0  0  0  0  0  0  0  0  0  0
   13.5394   -3.5490    0.0000 F   0  0  0  0  0  0  0  0  0  0  0  0
   15.0394   -0.9510    0.0000 F   0  0  0  0  0  0  0  0  0  0  0  0
   15.5885   -3.0000    0.0000 C   0  0  0  0  0  0  0  0  0  0  0  0
   16.3385   -1.7010    0.0000 F   0  0  0  0  0  0  0  0  0  0  0  0
   14.8385   -4.2990    0.0000 F   0  0  0  0  0  0  0  0  0  0  0  0
   16.8875   -3.7500    0.0000 C   0  0  0  0  0  0  0  0  0  0  0  0
   16.1375   -5.0490    0.0000 F   0  0  0  0  0  0  0  0  0  0  0  0
   17.6375   -2.4510    0.0000 F   0  0  0  0  0  0  0  0  0  0  0  0
   18.1865   -4.5000    0.0000 C   0  0  0  0  0  0  0  0  0  0  0  0
   18.9365   -3.2010    0.0000 F   0  0  0  0  0  0  0  0  0  0  0  0
   17.4365   -5.7990    0.0000 F   0  0  0  0  0  0  0  0  0  0  0  0
   19.4856   -5.2500    0.0000 C   0  0  0  0  0  0  0  0  0  0  0  0
   18.7356   -6.5490    0.0000 F   0  0  0  0  0  0  0  0  0  0  0  0
   20.2356   -3.9510    0.0000 F   0  0  0  0  0  0  0  0  0  0  0  0
   20.7846   -6.0000    0.0000 C   0  0  0  0  0  0  0  0  0  0  0  0
   21.5346   -4.7010    0.0000 F   0  0  0  0  0  0  0  0  0  0  0  0
   20.0346   -7.2990    0.0000 F   0  0  0  0  0  0  0  0  0  0  0  0
   22.0836   -6.7500    0.0000 C   0  0  0  0  0  0  0  0  0  0  0  0
   21.3336   -8.0490    0.0000 F   0  0  0  0  0  0  0  0  0  0  0  0
   22.8336   -5.4510    0.0000 F   0  0  0  0  0  0  0  0  0  0  0  0
   23.3827   -7.5000    0.0000 C   0  0  0  0  0  0  0  0  0  0  0  0
   24.1327   -6.2010    0.0000 F   0  0  0  0  0  0  0  0  0  0  0  0
   22.6327   -8.7990    0.0000 F   0  0  0  0  0  0  0  0  0  0  0  0
   24.6817   -8.2500    0.0000 C   0  0  0  0  0  0  0  0  0  0  0  0
   25.9808   -9.0000    0.0000 F   0  0  0  0  0  0  0  0  0  0  0  0
   23.9317   -9.5490    0.0000 F   0  0  0  0  0  0  0  0  0  0  0  0
   25.4317   -6.9510    0.0000 F   0  0  0  0  0  0  0  0  0  0  0  0
  1  2  1  0
  2  3  1  0
  3  4  1  0
  4  5  1  0
  5  6  1  0
  6  7  1  0
  7  8  1  0
  8  9  1  0
  9 10  1  0
  9 11  1  0
  9 12  1  0
 12 13  1  0
 12 14  1  0
 12 15  1  0
 15 16  1  0
 15 17  1  0
 15 18  1  0
 18 19  1  0
 18 20  1  0
 18 21  1  0
 21 22  1  0
 21 23  1  0
 21 24  1  0
 24 25  1  0
 24 26  1  0
 24 27  1  0
 27 28  1  0
 27 29  1  0
 27 30  1  0
 30 31  1  0
 30 32  1  0
 30 33  1  0
 33 34  1  0
 33 35  1  0
 33 36  1  0
 36 37  1  0
 36 38  1  0
 36 39  1  0
 39 40  1  0
 39 41  1  0
 39 42  1  0
 42 43  1  0
 42 44  1  0
 42 45  1  0
M  END
$$$$

     RDKit          2D

 28 27  0  0  0  0  0  0  0  0999 V2000
    0.0000    0.0000    0.0000 C   0  0  0  0  0  0  0  0  0  0  0  0
    1.2990    0.7500    0.0000 C   0  0  0  0  0  0  0  0  0  0  0  0
    1.2990    2.2500    0.0000 Br  0  0  0  0  0  0  0  0  0  0  0  0
    2.5981   -0.0000    0.0000 C   0  0  0  0  0  0  0  0  0  0  0  0
    1.8481   -1.2990    0.0000 F   0  0  0  0  0  0  0  0  0  0  0  0
    3.3481    1.2990    0.0000 F   0  0  0  0  0  0  0  0  0  0  0  0
    3.8971   -0.7500    0.0000 C   0  0  0  0  0  0  0  0  0  0  0  0
    4.6471    0.5490    0.0000 F   0  0  0  0  0  0  0  0  0  0  0  0
    3.1471   -2.0490    0.0000 F   0  0  0  0  0  0  0  0  0  0  0  0
    5.1962   -1.5000    0.0000 C   0  0  0  0  0  0  0  0  0  0  0  0
    4.4462   -2.7990    0.0000 F   0  0  0  0  0  0  0  0  0  0  0  0
    5.9462   -0.2010    0.0000 F   0  0  0  0  0  0  0  0  0  0  0  0
    6.4952   -2.2500    0.0000 C   0  0  0  0  0  0  0  0  0  0  0  0
    7.2452   -0.9510    0.0000 F   0  0  0  0  0  0  0  0  0  0  0  0
    5.7452   -3.5490    0.0000 F   0  0  0  0  0  0  0  0  0  0  0  0
    7.7942   -3.0000    0.0000 C   0  0  0  0  0  0  0  0  0  0  0  0
    8.5442   -1.7010    0.0000 F   0  0  0  0  0  0  0  0  0  0  0  0
    7.0442   -4.2990    0.0000 F   0  0  0  0  0  0  0  0  0  0  0  0
    9.0933   -3.7500    0.0000 C   0  0  0  0  0  0  0  0  0  0  0  0
    8.3433   -5.0490    0.0000 F   0  0  0  0  0  0  0  0  0  0  0  0
    9.8433   -2.4510    0.0000 F   0  0  0  0  0  0  0  0  0  0  0  0
   10.3923   -4.5000    0.0000 C   0  0  0  0  0  0  0  0  0  0  0  0
   11.1423   -3.2010    0.0000 F   0  0  0  0  0  0  0  0  0  0  0  0
    9.6423   -5.7990    0.0000 F   0  0  0  0  0  0  0  0  0  0  0  0
   11.6913   -5.2500    0.0000 C   0  0  0  0  0  0  0  0  0  0  0  0
   12.9904   -6.0000    0.0000 F   0  0  0  0  0  0  0  0  0  0  0  0
   10.9413   -6.5490    0.0000 F   0  0  0  0  0  0  0  0  0  0  0  0
   12.4413   -3.9510    0.0000 F   0  0  0  0  0  0  0  0  0  0  0  0
  1  2  2  0
  2  3  1  0
  2  4  1  0
  4  5  1  0
  4  6  1  0
  4  7  1  0
  7  8  1  0
  7  9  1  0
  7 10  1  0
 10 11  1  0
 10 12  1  0
 10 13  1  0
 13 14  1  0
 13 15  1  0
 13 16  1  0
 16 17  1  0
 16 18  1  0
 16 19  1  0
 19 20  1  0
 19 21  1  0
 19 22  1  0
 22 23  1  0
 22 24  1  0
 22 25  1  0
 25 26  1  0
 25 27  1  0
 25 28  1  0
M  END
$$$$

     RDKit          2D

 46 45  0  0  0  0  0  0  0  0999 V2000
    0.0000    0.0000    0.0000 C   0  0  0  0  0  0  0  0  0  0  0  0
    1.2990    0.7500    0.0000 C   0  0  0  0  0  0  0  0  0  0  0  0
    2.5981   -0.0000    0.0000 C   0  0  0  0  0  0  0  0  0  0  0  0
    3.8971    0.7500    0.0000 C   0  0  0  0  0  0  0  0  0  0  0  0
    5.1962   -0.0000    0.0000 C   0  0  0  0  0  0  0  0  0  0  0  0
    6.4952    0.7500    0.0000 C   0  0  0  0  0  0  0  0  0  0  0  0
    7.7942   -0.0000    0.0000 C   0  0  0  0  0  0  0  0  0  0  0  0
    9.0933    0.7500    0.0000 C   0  0  0  0  0  0  0  0  0  0  0  0
   10.3923   -0.0000    0.0000 C   0  0  0  0  0  0  0  0  0  0  0  0
   11.6913    0.7500    0.0000 C   0  0  0  0  0  0  0  0  0  0  0  0
   12.9904   -0.0000    0.0000 C   0  0  0  0  0  0  0  0  0  0  0  0
   14.2894    0.7500    0.0000 C   0  0  0  0  0  0  0  0  0  0  0  0
   15.5885   -0.0000    0.0000 C   0  0  0  0  0  0  0  0  0  0  0  0
   16.8875    0.7500    0.0000 C   0  0  0  0  0  0  0  0  0  0  0  0
   18.1865   -0.0000    0.0000 C   0  0  0  0  0  0  0  0  0  0  0  0
   19.4856    0.7500    0.0000 C   0  0  0  0  0  0  0  0  0  0  0  0
   20.7846   -0.0000    0.0000 C   0  0  0  0  0  0  0  0  0  0  0  0
   22.0836    0.7500    0.0000 C   0  0  0  0  0  0  0  0  0  0  0  0
   23.3827   -0.0000    0.0000 C   0  0  0  0  0  0  0  0  0  0  0  0
   24.1327    1.2990    0.0000 F   0  0  0  0  0  0  0  0  0  0  0  0
   22.6327   -1.2990    0.0000 F   0  0  0  0  0  0  0  0  0  0  0  0
   24.6817   -0.7500    0.0000 C   0  0  0  0  0  0  0  0  0  0  0  0
   23.9317   -2.0490    0.0000 F   0  0  0  0  0  0  0  0  0  0  0  0
   25.4317    0.5490    0.0000 F   0  0  0  0  0  0  0  0  0  0  0  0
   25.9808   -1.5000    0.0000 C   0  0  0  0  0  0  0  0  0  0  0  0
   26.7308   -0.2010    0.0000 F   0  0  0  0  0  0  0  0  0  0  0  0
   25.2308   -2.7990    0.0000 F   0  0  0  0  0  0  0  0  0  0  0  0
   27.2798   -2.2500    0.0000 C   0  0  0  0  0  0  0  0  0  0  0  0
   26.5298   -3.5490    0.0000 F   0  0  0  0  0  0  0  0  0  0  0  0
   28.0298   -0.9510    0.0000 F   0  0  0  0  0  0  0  0  0  0  0  0
   28.5788   -3.0000    0.0000 C   0  0  0  0  0  0  0  0  0  0  0  0
   29.3288   -1.7010    0.0000 F   0  0  0  0  0  0  0  0  0  0  0  0
   27.8288   -4.2990    0.0000 F   0  0  0  0  0  0  0  0  0  0  0  0
   29.8779   -3.7500    0.0000 C   0  0  0  0  0  0  0  0  0  0  0  0
   29.1279   -5.0490    0.0000 F   0  0  0  0  0  0  0  0  0  0  0  0
   30.6279   -2.4510    0.0000 F   0  0  0  0  0  0  0  0  0  0  0  0
   31.1769   -4.5000    0.0000 C   0  0  0  0  0  0  0  0  0  0  0  0
   31.9269   -3.2010    0.0000 F   0  0  0  0  0  0  0  0  0  0  0  0
   30.4269   -5.7990    0.0000 F   0  0  0  0  0  0  0  0  0  0  0  0
   32.4760   -5.2500    0.0000 C   0  0  0  0  0  0  0  0  0  0  0  0
   31.7260   -6.5490    0.0000 F   0  0  0  0  0  0  0  0  0  0  0  0
   33.2260   -3.9510    0.0000 F   0  0  0  0  0  0  0  0  0  0  0  0
   33.7750   -6.0000    0.0000 C   0  0  0  0  0  0  0  0  0  0  0  0
   35.0740   -6.7500    0.0000 F   0  0  0  0  0  0  0  0  0  0  0  0
   34.5250   -4.7010    0.0000 F   0  0  0  0  0  0  0  0  0  0  0  0
   33.0250   -7.2990    0.0000 F   0  0  0  0  0  0  0  0  0  0  0  0
  1  2  1  0
  2  3  1  0
  3  4  1  0
  4  5  1  0
  5  6  1  0
  6  7  1  0
  7  8  1  0
  8  9  1  0
  9 10  1  0
 10 11  1  0
 11 12  1  0
 12 13  1  0
 13 14  1  0
 14 15  1  0
 15 16  1  0
 16 17  1  0
 17 18  1  0
 18 19  1  0
 19 20  1  0
 19 21  1  0
 19 22  1  0
 22 23  1  0
 22 24  1  0
 22 25  1  0
 25 26  1  0
 25 27  1  0
 25 28  1  0
 28 29  1  0
 28 30  1  0
 28 31  1  0
 31 32  1  0
 31 33  1  0
 31 34  1  0
 34 35  1  0
 34 36  1  0
 34 37  1  0
 37 38  1  0
 37 39  1  0
 37 40  1  0
 40 41  1  0
 40 42  1  0
 40 43  1  0
 43 44  1  0
 43 45  1  0
 43 46  1  0
M  END
$$$$

     RDKit          2D

 28 27  0  0  0  0  0  0  0  0999 V2000
   -6.4952    3.7500    0.0000 F   0  0  0  0  0  0  0  0  0  0  0  0
   -5.1962    3.0000    0.0000 C   0  0  0  0  0  0  0  0  0  0  0  0
   -4.4462    4.2990    0.0000 F   0  0  0  0  0  0  0  0  0  0  0  0
   -5.9462    1.7010    0.0000 F   0  0  0  0  0  0  0  0  0  0  0  0
   -3.8971    2.2500    0.0000 C   0  0  0  0  0  0  0  0  0  0  0  0
   -4.6471    0.9510    0.0000 F   0  0  0  0  0  0  0  0  0  0  0  0
   -3.1471    3.5490    0.0000 F   0  0  0  0  0  0  0  0  0  0  0  0
   -2.5981    1.5000    0.0000 C   0  0  0  0  0  0  0  0  0  0  0  0
   -1.8481    2.7990    0.0000 F   0  0  0  0  0  0  0  0  0  0  0  0
   -3.3481    0.2010    0.0000 F   0  0  0  0  0  0  0  0  0  0  0  0
   -1.2990    0.7500    0.0000 C   0  0  0  0  0  0  0  0  0  0  0  0
   -2.0490   -0.5490    0.0000 F   0  0  0  0  0  0  0  0  0  0  0  0
   -0.5490    2.0490    0.0000 F   0  0  0  0  0  0  0  0  0  0  0  0
    0.0000    0.0000    0.0000 C   0  0  0  0  0  0  0  0  0  0  0  0
    1.2990    0.7500    0.0000 C   0  0  0  0  0  0  0  0  0  0  0  0
    2.5981   -0.0000    0.0000 C   0  0  0  0  0  0  0  0  0  0  0  0
    3.3481    1.2990    0.0000 F   0  0  0  0  0  0  0  0  0  0  0  0
    1.8481   -1.2990    0.0000 F   0  0  0  0  0  0  0  0  0  0  0  0
    3.8971   -0.7500    0.0000 C   0  0  0  0  0  0  0  0  0  0  0  0
    3.1471   -2.0490    0.0000 F   0  0  0  0  0  0  0  0  0  0  0  0
    4.6471    0.5490    0.0000 F   0  0  0  0  0  0  0  0  0  0  0  0
    5.1962   -1.5000    0.0000 C   0  0  0  0  0  0  0  0  0  0  0  0
    5.9462   -0.2010    0.0000 F   0  0  0  0  0  0  0  0  0  0  0  0
    4.4462   -2.7990    0.0000 F   0  0  0  0  0  0  0  0  0  0  0  0
    6.4952   -2.2500    0.0000 C   0  0  0  0  0  0  0  0  0  0  0  0
    7.7942   -3.0000    0.0000 F   0  0  0  0  0  0  0  0  0  0  0  0
    5.7452   -3.5490    0.0000 F   0  0  0  0  0  0  0  0  0  0  0  0
    7.2452   -0.9510    0.0000 F   0  0  0  0  0  0  0  0  0  0  0  0
  1  2  1  0
  2  3  1  0
  2  4  1  0
  2  5  1  0
  5  6  1  0
  5  7  1  0
  5  8  1  0
  8  9  1  0
  8 10  1  0
  8 11  1  0
 11 12  1  0
 11 13  1  0
 11 14  1  0
 14 15  2  3
 15 16  1  0
 16 17  1  0
 16 18  1  0
 16 19  1  0
 19 20  1  0
 19 21  1  0
 19 22  1  0
 22 23  1  0
 22 24  1  0
 22 25  1  0
 25 26  1  0
 25 27  1  0
 25 28  1  0
M  END
$$$$

     RDKit          2D

 44 43  0  0  0  0  0  0  0  0999 V2000
    0.0000    0.0000    0.0000 C   0  0  0  0  0  0  0  0  0  0  0  0
    1.2990    0.7500    0.0000 C   0  0  0  0  0  0  0  0  0  0  0  0
    2.5981   -0.0000    0.0000 C   0  0  0  0  0  0  0  0  0  0  0  0
    3.8971    0.7500    0.0000 C   0  0  0  0  0  0  0  0  0  0  0  0
    5.1962   -0.0000    0.0000 C   0  0  0  0  0  0  0  0  0  0  0  0
    6.4952    0.7500    0.0000 C   0  0  0  0  0  0  0  0  0  0  0  0
    7.7942   -0.0000    0.0000 C   0  0  0  0  0  0  0  0  0  0  0  0
    9.0933    0.7500    0.0000 C   0  0  0  0  0  0  0  0  0  0  0  0
   10.3923   -0.0000    0.0000 C   0  0  0  0  0  0  0  0  0  0  0  0
   11.6913    0.7500    0.0000 C   0  0  0  0  0  0  0  0  0  0  0  0
   12.9904   -0.0000    0.0000 C   0  0  0  0  0  0  0  0  0  0  0  0
   12.9904   -1.5000    0.0000 I   0  0  0  0  0  0  0  0  0  0  0  0
   14.2894    0.7500    0.0000 C   0  0  0  0  0  0  0  0  0  0  0  0
   15.5885   -0.0000    0.0000 C   0  0  0  0  0  0  0  0  0  0  0  0
   16.3385    1.2990    0.0000 F   0  0  0  0  0  0  0  0  0  0  0  0
   14.8385   -1.2990    0.0000 F   0  0  0  0  0  0  0  0  0  0  0  0
   16.8875   -0.7500    0.0000 C   0  0  0  0  0  0  0  0  0  0  0  0
   16.1375   -2.0490    0.0000 F   0  0  0  0  0  0  0  0  0  0  0  0
   17.6375    0.5490    0.0000 F   0  0  0  0  0  0  0  0  0  0  0  0
   18.1865   -1.5000    0.0000 C   0  0  0  0  0  0  0  0  0  0  0  0
   18.9365   -0.2010    0.0000 F   0  0  0  0  0  0  0  0  0  0  0  0
   17.4365   -2.7990    0.0000 F   0  0  0  0  0  0  0  0  0  0  0  0
   19.4856   -2.2500    0.0000 C   0  0  0  0  0  0  0  0  0  0  0  0
   18.7356   -3.5490    0.0000 F   0  0  0  0  0  0  0  0  0  0  0  0
   20.2356   -0.9510    0.0000 F   0  0  0  0  0  0  0  0  0  0  0  0
   20.7846   -3.0000    0.0000 C   0  0  0  0  0  0  0  0  0  0  0  0
   21.5346   -1.7010    0.0000 F   0  0  0  0  0  0  0  0  0  0  0  0
   20.0346   -4.2990    0.0000 F   0  0  0  0  0  0  0  0  0  0  0  0
   22.0836   -3.7500    0.0000 C   0  0  0  0  0  0  0  0  0  0  0  0
   21.3336   -5.0490    0.0000 F   0  0  0  0  0  0  0  0  0  0  0  0
   22.8336   -2.4510    0.0000 F   0  0  0  0  0  0  0  0  0  0  0  0
   23.3827   -4.5000    0.0000 C   0  0  0  0  0  0  0  0  0  0  0  0
   24.1327   -3.2010    0.0000 F   0  0  0  0  0  0  0  0  0  0  0  0
   22.6327   -5.7990    0.0000 F   0  0  0  0  0  0  0  0  0  0  0  0
   24.6817   -5.2500    0.0000 C   0  0  0  0  0  0  0  0  0  0  0  0
   23.9317   -6.5490    0.0000 F   0  0  0  0  0  0  0  0  0  0  0  0
   25.4317   -3.9510    0.0000 F   0  0  0  0  0  0  0  0  0  0  0  0
   25.9808   -6.0000    0.0000 C   0  0  0  0  0  0  0  0  0  0  0  0
   26.7308   -4.7010    0.0000 F   0  0  0  0  0  0  0  0  0  0  0  0
   25.2308   -7.2990    0.0000 F   0  0  0  0  0  0  0  0  0  0  0  0
   27.2798   -6.7500    0.0000 C   0  0  0  0  0  0  0  0  0  0  0  0
   28.5788   -7.5000    0.0000 F   0  0  0  0  0  0  0  0  0  0  0  0
   26.5298   -8.0490    0.0000 F   0  0  0  0  0  0  0  0  0  0  0  0
   28.0298   -5.4510    0.0000 F   0  0  0  0  0  0  0  0  0  0  0  0
  1  2  1  0
  2  3  1  0
  3  4  1  0
  4  5  1  0
  5  6  1  0
  6  7  1  0
  7  8  1  0
  8  9  1  0
  9 10  1  0
 10 11  1  0
 11 12  1  0
 11 13  1  0
 13 14  1  0
 14 15  1  0
 14 16  1  0
 14 17  1  0
 17 18  1  0
 17 19  1  0
 17 20  1  0
 20 21  1  0
 20 22  1  0
 20 23  1  0
 23 24  1  0
 23 25  1  0
 23 26  1  0
 26 27  1  0
 26 28  1  0
 26 29  1  0
 29 30  1  0
 29 31  1  0
 29 32  1  0
 32 33  1  0
 32 34  1  0
 32 35  1  0
 35 36  1  0
 35 37  1  0
 35 38  1  0
 38 39  1  0
 38 40  1  0
 38 41  1  0
 41 42  1  0
 41 43  1  0
 41 44  1  0
M  END
$$$$

     RDKit          2D

 28 27  0  0  0  0  0  0  0  0999 V2000
    0.0000    0.0000    0.0000 C   0  0  0  0  0  0  0  0  0  0  0  0
    1.2990    0.7500    0.0000 C   0  0  0  0  0  0  0  0  0  0  0  0
    2.5981   -0.0000    0.0000 C   0  0  0  0  0  0  0  0  0  0  0  0
    3.8971    0.7500    0.0000 C   0  0  0  0  0  0  0  0  0  0  0  0
    5.1962   -0.0000    0.0000 C   0  0  0  0  0  0  0  0  0  0  0  0
    6.4952    0.7500    0.0000 C   0  0  0  0  0  0  0  0  0  0  0  0
    7.7942   -0.0000    0.0000 C   0  0  0  0  0  0  0  0  0  0  0  0
    9.0933    0.7500    0.0000 C   0  0  0  0  0  0  0  0  0  0  0  0
   10.3923   -0.0000    0.0000 C   0  0  0  0  0  0  0  0  0  0  0  0
   11.6913    0.7500    0.0000 C   0  0  0  0  0  0  0  0  0  0  0  0
   12.4413   -0.5490    0.0000 F   0  0  0  0  0  0  0  0  0  0  0  0
   10.9413    2.0490    0.0000 F   0  0  0  0  0  0  0  0  0  0  0  0
   12.9904    1.5000    0.0000 C   0  0  0  0  0  0  0  0  0  0  0  0
   12.2404    2.7990    0.0000 F   0  0  0  0  0  0  0  0  0  0  0  0
   13.7404    0.2010    0.0000 F   0  0  0  0  0  0  0  0  0  0  0  0
   14.2894    2.2500    0.0000 C   0  0  0  0  0  0  0  0  0  0  0  0
   15.0394    0.9510    0.0000 F   0  0  0  0  0  0  0  0  0  0  0  0
   13.5394    3.5490    0.0000 F   0  0  0  0  0  0  0  0  0  0  0  0
   15.5885    3.0000    0.0000 C   0  0  0  0  0  0  0  0  0  0  0  0
   14.8385    4.2990    0.0000 F   0  0  0  0  0  0  0  0  0  0  0  0
   16.3385    1.7010    0.0000 F   0  0  0  0  0  0  0  0  0  0  0  0
   16.8875    3.7500    0.0000 C   0  0  0  0  0  0  0  0  0  0  0  0
   17.6375    2.4510    0.0000 F   0  0  0  0  0  0  0  0  0  0  0  0
   16.1375    5.0490    0.0000 F   0  0  0  0  0  0  0  0  0  0  0  0
   18.1865    4.5000    0.0000 C   0  0  0  0  0  0  0  0  0  0  0  0
   19.4856    5.2500    0.0000 F   0  0  0  0  0  0  0  0  0  0  0  0
   17.4365    5.7990    0.0000 F   0  0  0  0  0  0  0  0  0  0  0  0
   18.9365    3.2010    0.0000 F   0  0  0  0  0  0  0  0  0  0  0  0
  1  2  1  0
  2  3  1  0
  3  4  1  0
  4  5  1  0
  5  6  1  0
  6  7  1  0
  7  8  1  0
  8  9  2  3
  9 10  1  0
 10 11  1  0
 10 12  1  0
 10 13  1  0
 13 14  1  0
 13 15  1  0
 13 16  1  0
 16 17  1  0
 16 18  1  0
 16 19  1  0
 19 20  1  0
 19 21  1  0
 19 22  1  0
 22 23  1  0
 22 24  1  0
 22 25  1  0
 25 26  1  0
 25 27  1  0
 25 28  1  0
M  END
$$$$

     RDKit          2D

 29 28  0  0  0  0  0  0  0  0999 V2000
    0.0000    0.0000    0.0000 C   0  0  0  0  0  0  0  0  0  0  0  0
    1.2990    0.7500    0.0000 C   0  0  0  0  0  0  0  0  0  0  0  0
    2.5981   -0.0000    0.0000 C   0  0  0  0  0  0  0  0  0  0  0  0
    3.8971    0.7500    0.0000 C   0  0  0  0  0  0  0  0  0  0  0  0
    5.1962   -0.0000    0.0000 C   0  0  0  0  0  0  0  0  0  0  0  0
    6.4952    0.7500    0.0000 C   0  0  0  0  0  0  0  0  0  0  0  0
    7.7942   -0.0000    0.0000 C   0  0  0  0  0  0  0  0  0  0  0  0
    9.0933    0.7500    0.0000 C   0  0  0  0  0  0  0  0  0  0  0  0
    9.8433   -0.5490    0.0000 F   0  0  0  0  0  0  0  0  0  0  0  0
    8.3433    2.0490    0.0000 F   0  0  0  0  0  0  0  0  0  0  0  0
   10.3923    1.5000    0.0000 C   0  0  0  0  0  0  0  0  0  0  0  0
    9.6423    2.7990    0.0000 F   0  0  0  0  0  0  0  0  0  0  0  0
   11.1423    0.2010    0.0000 F   0  0  0  0  0  0  0  0  0  0  0  0
   11.6913    2.2500    0.0000 C   0  0  0  0  0  0  0  0  0  0  0  0
   12.4413    0.9510    0.0000 F   0  0  0  0  0  0  0  0  0  0  0  0
   10.9413    3.5490    0.0000 F   0  0  0  0  0  0  0  0  0  0  0  0
   12.9904    3.0000    0.0000 C   0  0  0  0  0  0  0  0  0  0  0  0
   12.2404    4.2990    0.0000 F   0  0  0  0  0  0  0  0  0  0  0  0
   13.7404    1.7010    0.0000 F   0  0  0  0  0  0  0  0  0  0  0  0
   14.2894    3.7500    0.0000 C   0  0  0  0  0  0  0  0  0  0  0  0
   15.0394    2.4510    0.0000 F   0  0  0  0  0  0  0  0  0  0  0  0
   13.5394    5.0490    0.0000 F   0  0  0  0  0  0  0  0  0  0  0  0
   15.5885    4.5000    0.0000 C   0  0  0  0  0  0  0  0  0  0  0  0
   14.8385    5.7990    0.0000 F   0  0  0  0  0  0  0  0  0  0  0  0
   16.3385    3.2010    0.0000 F   0  0  0  0  0  0  0  0  0  0  0  0
   16.8875    5.2500    0.0000 C   0  0  0  0  0  0  0  0  0  0  0  0
   18.1865    6.0000    0.0000 F   0  0  0  0  0  0  0  0  0  0  0  0
   17.6375    3.9510    0.0000 F   0  0  0  0  0  0  0  0  0  0  0  0
   16.1375    6.5490    0.0000 F   0  0  0  0  0  0  0  0  0  0  0  0
  1  2  1  0
  2  3  1  0
  3  4  1  0
  4  5  1  0
  5  6  1  0
  6  7  2  3
  7  8  1  0
  8  9  1  0
  8 10  1  0
  8 11  1  0
 11 12  1  0
 11 13  1  0
 11 14  1  0
 14 15  1  0
 14 16  1  0
 14 17  1  0
 17 18  1  0
 17 19  1  0
 17 20  1  0
 20 21  1  0
 20 22  1  0
 20 23  1  0
 23 24  1  0
 23 25  1  0
 23 26  1  0
 26 27  1  0
 26 28  1  0
 26 29  1  0
M  END
$$$$

     RDKit          2D

 48 47  0  0  0  0  0  0  0  0999 V2000
    0.0000    0.0000    0.0000 C   0  0  0  0  0  0  0  0  0  0  0  0
    1.2990    0.7500    0.0000 C   0  0  0  0  0  0  0  0  0  0  0  0
    2.5981   -0.0000    0.0000 C   0  0  0  0  0  0  0  0  0  0  0  0
    3.8971    0.7500    0.0000 C   0  0  0  0  0  0  0  0  0  0  0  0
    5.1962   -0.0000    0.0000 C   0  0  0  0  0  0  0  0  0  0  0  0
    6.4952    0.7500    0.0000 C   0  0  0  0  0  0  0  0  0  0  0  0
    7.7942   -0.0000    0.0000 C   0  0  0  0  0  0  0  0  0  0  0  0
    9.0933    0.7500    0.0000 C   0  0  0  0  0  0  0  0  0  0  0  0
   10.3923   -0.0000    0.0000 C   0  0  0  0  0  0  0  0  0  0  0  0
   11.6913    0.7500    0.0000 C   0  0  0  0  0  0  0  0  0  0  0  0
   12.9904   -0.0000    0.0000 C   0  0  0  0  0  0  0  0  0  0  0  0
   14.2894    0.7500    0.0000 C   0  0  0  0  0  0  0  0  0  0  0  0
   15.5885   -0.0000    0.0000 C   0  0  0  0  0  0  0  0  0  0  0  0
   16.8875    0.7500    0.0000 C   0  0  0  0  0  0  0  0  0  0  0  0
   18.1865   -0.0000    0.0000 C   0  0  0  0  0  0  0  0  0  0  0  0
   18.1865   -1.5000    0.0000 I   0  0  0  0  0  0  0  0  0  0  0  0
   19.4856    0.7500    0.0000 C   0  0  0  0  0  0  0  0  0  0  0  0
   20.7846   -0.0000    0.0000 C   0  0  0  0  0  0  0  0  0  0  0  0
   21.5346    1.2990    0.0000 F   0  0  0  0  0  0  0  0  0  0  0  0
   20.0346   -1.2990    0.0000 F   0  0  0  0  0  0  0  0  0  0  0  0
   22.0836   -0.7500    0.0000 C   0  0  0  0  0  0  0  0  0  0  0  0
   21.3336   -2.0490    0.0000 F   0  0  0  0  0  0  0  0  0  0  0  0
   22.8336    0.5490    0.0000 F   0  0  0  0  0  0  0  0  0  0  0  0
   23.3827   -1.5000    0.0000 C   0  0  0  0  0  0  0  0  0  0  0  0
   24.1327   -0.2010    0.0000 F   0  0  0  0  0  0  0  0  0  0  0  0
   22.6327   -2.7990    0.0000 F   0  0  0  0  0  0  0  0  0  0  0  0
   24.6817   -2.2500    0.0000 C   0  0  0  0  0  0  0  0  0  0  0  0
   23.9317   -3.5490    0.0000 F   0  0  0  0  0  0  0  0  0  0  0  0
   25.4317   -0.9510    0.0000 F   0  0  0  0  0  0  0  0  0  0  0  0
   25.9808   -3.0000    0.0000 C   0  0  0  0  0  0  0  0  0  0  0  0
   26.7308   -1.7010    0.0000 F   0  0  0  0  0  0  0  0  0  0  0  0
   25.2308   -4.2990    0.0000 F   0  0  0  0  0  0  0  0  0  0  0  0
   27.2798   -3.7500    0.0000 C   0  0  0  0  0  0  0  0  0  0  0  0
   26.5298   -5.0490    0.0000 F   0  0  0  0  0  0  0  0  0  0  0  0
   28.0298   -2.4510    0.0000 F   0  0  0  0  0  0  0  0  0  0  0  0
   28.5788   -4.5000    0.0000 C   0  0  0  0  0  0  0  0  0  0  0  0
   29.3288   -3.2010    0.0000 F   0  0  0  0  0  0  0  0  0  0  0  0
   27.8288   -5.7990    0.0000 F   0  0  0  0  0  0  0  0  0  0  0  0
   29.8779   -5.2500    0.0000 C   0  0  0  0  0  0  0  0  0  0  0  0
   29.1279   -6.5490    0.0000 F   0  0  0  0  0  0  0  0  0  0  0  0
   30.6279   -3.9510    0.0000 F   0  0  0  0  0  0  0  0  0  0  0  0
   31.1769   -6.0000    0.0000 C   0  0  0  0  0  0  0  0  0  0  0  0
   31.9269   -4.7010    0.0000 F   0  0  0  0  0  0  0  0  0  0  0  0
   30.4269   -7.2990    0.0000 F   0  0  0  0  0  0  0  0  0  0  0  0
   32.4760   -6.7500    0.0000 C   0  0  0  0  0  0  0  0  0  0  0  0
   33.7750   -7.5000    0.0000 F   0  0  0  0  0  0  0  0  0  0  0  0
   31.7260   -8.0490    0.0000 F   0  0  0  0  0  0  0  0  0  0  0  0
   33.2260   -5.4510    0.0000 F   0  0  0  0  0  0  0  0  0  0  0  0
  1  2  1  0
  2  3  1  0
  3  4  1  0
  4  5  1  0
  5  6  1  0
  6  7  1  0
  7  8  1  0
  8  9  1  0
  9 10  1  0
 10 11  1  0
 11 12  1  0
 12 13  1  0
 13 14  1  0
 14 15  1  0
 15 16  1  0
 15 17  1  0
 17 18  1  0
 18 19  1  0
 18 20  1  0
 18 21  1  0
 21 22  1  0
 21 23  1  0
 21 24  1  0
 24 25  1  0
 24 26  1  0
 24 27  1  0
 27 28  1  0
 27 29  1  0
 27 30  1  0
 30 31  1  0
 30 32  1  0
 30 33  1  0
 33 34  1  0
 33 35  1  0
 33 36  1  0
 36 37  1  0
 36 38  1  0
 36 39  1  0
 39 40  1  0
 39 41  1  0
 39 42  1  0
 42 43  1  0
 42 44  1  0
 42 45  1  0
 45 46  1  0
 45 47  1  0
 45 48  1  0
M  END
$$$$

     RDKit          2D

 52 51  0  0  0  0  0  0  0  0999 V2000
  -11.6913    6.7500    0.0000 F   0  0  0  0  0  0  0  0  0  0  0  0
  -10.3923    6.0000    0.0000 C   0  0  0  0  0  0  0  0  0  0  0  0
   -9.6423    7.2990    0.0000 F   0  0  0  0  0  0  0  0  0  0  0  0
  -11.1423    4.7010    0.0000 F   0  0  0  0  0  0  0  0  0  0  0  0
   -9.0933    5.2500    0.0000 C   0  0  0  0  0  0  0  0  0  0  0  0
   -9.8433    3.9510    0.0000 F   0  0  0  0  0  0  0  0  0  0  0  0
   -8.3433    6.5490    0.0000 F   0  0  0  0  0  0  0  0  0  0  0  0
   -7.7942    4.5000    0.0000 C   0  0  0  0  0  0  0  0  0  0  0  0
   -7.0442    5.7990    0.0000 F   0  0  0  0  0  0  0  0  0  0  0  0
   -8.5442    3.2010    0.0000 F   0  0  0  0  0  0  0  0  0  0  0  0
   -6.4952    3.7500    0.0000 C   0  0  0  0  0  0  0  0  0  0  0  0
   -7.2452    2.4510    0.0000 F   0  0  0  0  0  0  0  0  0  0  0  0
   -5.7452    5.0490    0.0000 F   0  0  0  0  0  0  0  0  0  0  0  0
   -5.1962    3.0000    0.0000 C   0  0  0  0  0  0  0  0  0  0  0  0
   -4.4462    4.2990    0.0000 F   0  0  0  0  0  0  0  0  0  0  0  0
   -5.9462    1.7010    0.0000 F   0  0  0  0  0  0  0  0  0  0  0  0
   -3.8971    2.2500    0.0000 C   0  0  0  0  0  0  0  0  0  0  0  0
   -4.6471    0.9510    0.0000 F   0  0  0  0  0  0  0  0  0  0  0  0
   -3.1471    3.5490    0.0000 F   0  0  0  0  0  0  0  0  0  0  0  0
   -2.5981    1.5000    0.0000 C   0  0  0  0  0  0  0  0  0  0  0  0
   -1.8481    2.7990    0.0000 F   0  0  0  0  0  0  0  0  0  0  0  0
   -3.3481    0.2010    0.0000 F   0  0  0  0  0  0  0  0  0  0  0  0
   -1.2990    0.7500    0.0000 C   0  0  0  0  0  0  0  0  0  0  0  0
   -2.0490   -0.5490    0.0000 F   0  0  0  0  0  0  0  0  0  0  0  0
   -0.5490    2.0490    0.0000 F   0  0  0  0  0  0  0  0  0  0  0  0
    0.0000    0.0000    0.0000 C   0  0  0  0  0  0  0  0  0  0  0  0
    1.2990    0.7500    0.0000 C   0  0  0  0  0  0  0  0  0  0  0  0
    2.5981   -0.0000    0.0000 C   0  0  0  0  0  0  0  0  0  0  0  0
    3.3481    1.2990    0.0000 F   0  0  0  0  0  0  0  0  0  0  0  0
    1.8481   -1.2990    0.0000 F   0  0  0  0  0  0  0  0  0  0  0  0
    3.8971   -0.7500    0.0000 C   0  0  0  0  0  0  0  0  0  0  0  0
    3.1471   -2.0490    0.0000 F   0  0  0  0  0  0  0  0  0  0  0  0
    4.6471    0.5490    0.0000 F   0  0  0  0  0  0  0  0  0  0  0  0
    5.1962   -1.5000    0.0000 C   0  0  0  0  0  0  0  0  0  0  0  0
    5.9462   -0.2010    0.0000 F   0  0  0  0  0  0  0  0  0  0  0  0
    4.4462   -2.7990    0.0000 F   0  0  0  0  0  0  0  0  0  0  0  0
    6.4952   -2.2500    0.0000 C   0  0  0  0  0  0  0  0  0  0  0  0
    5.7452   -3.5490    0.0000 F   0  0  0  0  0  0  0  0  0  0  0  0
    7.2452   -0.9510    0.0000 F   0  0  0  0  0  0  0  0  0  0  0  0
    7.7942   -3.0000    0.0000 C   0  0  0  0  0  0  0  0  0  0  0  0
    8.5442   -1.7010    0.0000 F   0  0  0  0  0  0  0  0  0  0  0  0
    7.0442   -4.2990    0.0000 F   0  0  0  0  0  0  0  0  0  0  0  0
    9.0933   -3.7500    0.0000 C   0  0  0  0  0  0  0  0  0  0  0  0
    8.3433   -5.0490    0.0000 F   0  0  0  0  0  0  0  0  0  0  0  0
    9.8433   -2.4510    0.0000 F   0  0  0  0  0  0  0  0  0  0  0  0
   10.3923   -4.5000    0.0000 C   0  0  0  0  0  0  0  0  0  0  0  0
   11.1423   -3.2010    0.0000 F   0  0  0  0  0  0  0  0  0  0  0  0
    9.6423   -5.7990    0.0000 F   0  0  0  0  0  0  0  0  0  0  0  0
   11.6913   -5.2500    0.0000 C   0  0  0  0  0  0  0  0  0  0  0  0
   12.9904   -6.0000    0.0000 F   0  0  0  0  0  0  0  0  0  0  0  0
   10.9413   -6.5490    0.0000 F   0  0  0  0  0  0  0  0  0  0  0  0
   12.4413   -3.9510    0.0000 F   0  0  0  0  0  0  0  0  0  0  0  0
  1  2  1  0
  2  3  1  0
  2  4  1  0
  2  5  1  0
  5  6  1  0
  5  7  1  0
  5  8  1  0
  8  9  1  0
  8 10  1  0
  8 11  1  0
 11 12  1  0
 11 13  1  0
 11 14  1  0
 14 15  1  0
 14 16  1  0
 14 17  1  0
 17 18  1  0
 17 19  1  0
 17 20  1  0
 20 21  1  0
 20 22  1  0
 20 23  1  0
 23 24  1  0
 23 25  1  0
 23 26  1  0
 26 27  1  0
 27 28  1  0
 28 29  1  0
 28 30  1  0
 28 31  1  0
 31 32  1  0
 31 33  1  0
 31 34  1  0
 34 35  1  0
 34 36  1  0
 34 37  1  0
 37 38  1  0
 37 39  1  0
 37 40  1  0
 40 41  1  0
 40 42  1  0
 40 43  1  0
 43 44  1  0
 43 45  1  0
 43 46  1  0
 46 47  1  0
 46 48  1  0
 46 49  1  0
 49 50  1  0
 49 51  1  0
 49 52  1  0
M  END
$$$$

     RDKit          2D

 21 20  0  0  0  0  0  0  0  0999 V2000
    0.0000    0.0000    0.0000 C   0  0  0  0  0  0  0  0  0  0  0  0
    1.2990    0.7500    0.0000 O   0  0  0  0  0  0  0  0  0  0  0  0
    2.5981   -0.0000    0.0000 C   0  0  0  0  0  0  0  0  0  0  0  0
    1.8481   -1.2990    0.0000 F   0  0  0  0  0  0  0  0  0  0  0  0
    3.3481    1.2990    0.0000 F   0  0  0  0  0  0  0  0  0  0  0  0
    3.8971   -0.7500    0.0000 C   0  0  0  0  0  0  0  0  0  0  0  0
    4.6471    0.5490    0.0000 F   0  0  0  0  0  0  0  0  0  0  0  0
    3.1471   -2.0490    0.0000 F   0  0  0  0  0  0  0  0  0  0  0  0
    5.1962   -1.5000    0.0000 C   0  0  0  0  0  0  0  0  0  0  0  0
    4.4462   -2.7990    0.0000 F   0  0  0  0  0  0  0  0  0  0  0  0
    5.9462   -0.2010    0.0000 F   0  0  0  0  0  0  0  0  0  0  0  0
    6.4952   -2.2500    0.0000 C   0  0  0  0  0  0  0  0  0  0  0  0
    5.7452   -3.5490    0.0000 F   0  0  0  0  0  0  0  0  0  0  0  0
    7.2452   -0.9510    0.0000 F   0  0  0  0  0  0  0  0  0  0  0  0
    7.7942   -3.0000    0.0000 C   0  0  0  0  0  0  0  0  0  0  0  0
    8.5442   -1.7010    0.0000 F   0  0  0  0  0  0  0  0  0  0  0  0
    7.0442   -4.2990    0.0000 F   0  0  0  0  0  0  0  0  0  0  0  0
    9.0933   -3.7500    0.0000 C   0  0  0  0  0  0  0  0  0  0  0  0
   10.3923   -4.5000    0.0000 F   0  0  0  0  0  0  0  0  0  0  0  0
    8.3433   -5.0490    0.0000 F   0  0  0  0  0  0  0  0  0  0  0  0
    9.8433   -2.4510    0.0000 F   0  0  0  0  0  0  0  0  0  0  0  0
  1  2  1  0
  2  3  1  0
  3  4  1  0
  3  5  1  0
  3  6  1  0
  6  7  1  0
  6  8  1  0
  6  9  1  0
  9 10  1  0
  9 11  1  0
  9 12  1  0
 12 13  1  0
 12 14  1  0
 12 15  1  0
 15 16  1  0
 15 17  1  0
 15 18  1  0
 18 19  1  0
 18 20  1  0
 18 21  1  0
M  END
$$$$

     RDKit          2D

 17 16  0  0  0  0  0  0  0  0999 V2000
    0.0000    0.0000    0.0000 C   0  0  0  0  0  0  0  0  0  0  0  0
    1.2990    0.7500    0.0000 C   0  0  0  0  0  0  0  0  0  0  0  0
    2.5981   -0.0000    0.0000 O   0  0  0  0  0  0  0  0  0  0  0  0
    3.8971    0.7500    0.0000 C   0  0  0  0  0  0  0  0  0  0  0  0
    3.8971    2.2500    0.0000 O   0  0  0  0  0  0  0  0  0  0  0  0
    5.1962   -0.0000    0.0000 C   0  0  0  0  0  0  0  0  0  0  0  0
    6.4952    0.7500    0.0000 C   0  0  0  0  0  0  0  0  0  0  0  0
    7.7942   -0.0000    0.0000 C   0  0  0  0  0  0  0  0  0  0  0  0
    8.5442    1.2990    0.0000 F   0  0  0  0  0  0  0  0  0  0  0  0
    7.0442   -1.2990    0.0000 F   0  0  0  0  0  0  0  0  0  0  0  0
    9.0933   -0.7500    0.0000 C   0  0  0  0  0  0  0  0  0  0  0  0
    8.3433   -2.0490    0.0000 F   0  0  0  0  0  0  0  0  0  0  0  0
    9.8433    0.5490    0.0000 F   0  0  0  0  0  0  0  0  0  0  0  0
   10.3923   -1.5000    0.0000 C   0  0  0  0  0  0  0  0  0  0  0  0
   11.6913   -2.2500    0.0000 F   0  0  0  0  0  0  0  0  0  0  0  0
   11.1423   -0.2010    0.0000 F   0  0  0  0  0  0  0  0  0  0  0  0
    9.6423   -2.7990    0.0000 F   0  0  0  0  0  0  0  0  0  0  0  0
  1  2  1  0
  2  3  1  0
  3  4  1  0
  4  5  2  0
  4  6  1  0
  6  7  1  0
  7  8  1  0
  8  9  1  0
  8 10  1  0
  8 11  1  0
 11 12  1  0
 11 13  1  0
 11 14  1  0
 14 15  1  0
 14 16  1  0
 14 17  1  0
M  END
$$$$

     RDKit          2D

 28 27  0  0  0  0  0  0  0  0999 V2000
   -1.2990    0.7500    0.0000 O   0  0  0  0  0  0  0  0  0  0  0  0
    0.0000    0.0000    0.0000 C   0  0  0  0  0  0  0  0  0  0  0  0
    1.2990    0.7500    0.0000 C   0  0  0  0  0  0  0  0  0  0  0  0
    2.5981   -0.0000    0.0000 C   0  0  0  0  0  0  0  0  0  0  0  0
    3.3481    1.2990    0.0000 F   0  0  0  0  0  0  0  0  0  0  0  0
    1.8481   -1.2990    0.0000 F   0  0  0  0  0  0  0  0  0  0  0  0
    3.8971   -0.7500    0.0000 C   0  0  0  0  0  0  0  0  0  0  0  0
    3.1471   -2.0490    0.0000 F   0  0  0  0  0  0  0  0  0  0  0  0
    4.6471    0.5490    0.0000 F   0  0  0  0  0  0  0  0  0  0  0  0
    5.1962   -1.5000    0.0000 C   0  0  0  0  0  0  0  0  0  0  0  0
    5.9462   -0.2010    0.0000 F   0  0  0  0  0  0  0  0  0  0  0  0
    4.4462   -2.7990    0.0000 F   0  0  0  0  0  0  0  0  0  0  0  0
    6.4952   -2.2500    0.0000 C   0  0  0  0  0  0  0  0  0  0  0  0
    5.7452   -3.5490    0.0000 F   0  0  0  0  0  0  0  0  0  0  0  0
    7.2452   -0.9510    0.0000 F   0  0  0  0  0  0  0  0  0  0  0  0
    7.7942   -3.0000    0.0000 C   0  0  0  0  0  0  0  0  0  0  0  0
    8.5442   -1.7010    0.0000 F   0  0  0  0  0  0  0  0  0  0  0  0
    7.0442   -4.2990    0.0000 F   0  0  0  0  0  0  0  0  0  0  0  0
    9.0933   -3.7500    0.0000 C   0  0  0  0  0  0  0  0  0  0  0  0
    8.3433   -5.0490    0.0000 F   0  0  0  0  0  0  0  0  0  0  0  0
    9.8433   -2.4510    0.0000 F   0  0  0  0  0  0  0  0  0  0  0  0
   10.3923   -4.5000    0.0000 C   0  0  0  0  0  0  0  0  0  0  0  0
   11.1423   -3.2010    0.0000 F   0  0  0  0  0  0  0  0  0  0  0  0
    9.6423   -5.7990    0.0000 F   0  0  0  0  0  0  0  0  0  0  0  0
   11.6913   -5.2500    0.0000 C   0  0  0  0  0  0  0  0  0  0  0  0
   12.9904   -6.0000    0.0000 F   0  0  0  0  0  0  0  0  0  0  0  0
   10.9413   -6.5490    0.0000 F   0  0  0  0  0  0  0  0  0  0  0  0
   12.4413   -3.9510    0.0000 F   0  0  0  0  0  0  0  0  0  0  0  0
  1  2  2  0
  2  3  1  0
  3  4  1  0
  4  5  1  0
  4  6  1  0
  4  7  1  0
  7  8  1  0
  7  9  1  0
  7 10  1  0
 10 11  1  0
 10 12  1  0
 10 13  1  0
 13 14  1  0
 13 15  1  0
 13 16  1  0
 16 17  1  0
 16 18  1  0
 16 19  1  0
 19 20  1  0
 19 21  1  0
 19 22  1  0
 22 23  1  0
 22 24  1  0
 22 25  1  0
 25 26  1  0
 25 27  1  0
 25 28  1  0
M  END
$$$$

     RDKit          2D

 17 16  0  0  0  0  0  0  0  0999 V2000
   -1.2990    2.2500    0.0000 N   0  0  0  0  0  0  0  0  0  0  0  0
   -1.2990    0.7500    0.0000 C   0  0  0  0  0  0  0  0  0  0  0  0
    0.0000    0.0000    0.0000 C   0  0  0  0  0  0  0  0  0  0  0  0
    1.2990    0.7500    0.0000 C   0  0  0  0  0  0  0  0  0  0  0  0
    2.5981   -0.0000    0.0000 C   0  0  0  0  0  0  0  0  0  0  0  0
    3.3481    1.2990    0.0000 F   0  0  0  0  0  0  0  0  0  0  0  0
    1.8481   -1.2990    0.0000 F   0  0  0  0  0  0  0  0  0  0  0  0
    3.8971   -0.7500    0.0000 C   0  0  0  0  0  0  0  0  0  0  0  0
    3.1471   -2.0490    0.0000 F   0  0  0  0  0  0  0  0  0  0  0  0
    4.6471    0.5490    0.0000 F   0  0  0  0  0  0  0  0  0  0  0  0
    5.1962   -1.5000    0.0000 C   0  0  0  0  0  0  0  0  0  0  0  0
    6.4952   -2.2500    0.0000 F   0  0  0  0  0  0  0  0  0  0  0  0
    5.9462   -0.2010    0.0000 F   0  0  0  0  0  0  0  0  0  0  0  0
    4.4462   -2.7990    0.0000 F   0  0  0  0  0  0  0  0  0  0  0  0
   -2.5981    0.0000    0.0000 C   0  0  0  0  0  0  0  0  0  0  0  0
   -2.5981   -1.5000    0.0000 O   0  0  0  0  0  0  0  0  0  0  0  0
   -3.8971    0.7500    0.0000 O   0  0  0  0  0  0  0  0  0  0  0  0
  1  2  1  0
  2  3  1  0
  3  4  1  0
  4  5  1  0
  5  6  1  0
  5  7  1  0
  5  8  1  0
  8  9  1  0
  8 10  1  0
  8 11  1  0
 11 12  1  0
 11 13  1  0
 11 14  1  0
  2 15  1  0
 15 16  2  0
 15 17  1  0
M  END
$$$$

     RDKit          2D

 16 15  0  0  0  0  0  0  0  0999 V2000
    0.0000    0.0000    0.0000 C   0  0  0  0  0  0  0  0  0  0  0  0
    1.2990    0.7500    0.0000 C   0  0  0  0  0  0  0  0  0  0  0  0
    2.5981   -0.0000    0.0000 O   0  0  0  0  0  0  0  0  0  0  0  0
    3.8971    0.7500    0.0000 C   0  0  0  0  0  0  0  0  0  0  0  0
    3.8971    2.2500    0.0000 O   0  0  0  0  0  0  0  0  0  0  0  0
    5.1962   -0.0000    0.0000 C   0  0  0  0  0  0  0  0  0  0  0  0
    6.4952    0.7500    0.0000 C   0  0  0  0  0  0  0  0  0  0  0  0
    7.2452   -0.5490    0.0000 F   0  0  0  0  0  0  0  0  0  0  0  0
    5.7452    2.0490    0.0000 F   0  0  0  0  0  0  0  0  0  0  0  0
    7.7942    1.5000    0.0000 C   0  0  0  0  0  0  0  0  0  0  0  0
    7.0442    2.7990    0.0000 F   0  0  0  0  0  0  0  0  0  0  0  0
    8.5442    0.2010    0.0000 F   0  0  0  0  0  0  0  0  0  0  0  0
    9.0933    2.2500    0.0000 C   0  0  0  0  0  0  0  0  0  0  0  0
   10.3923    3.0000    0.0000 F   0  0  0  0  0  0  0  0  0  0  0  0
    9.8433    0.9510    0.0000 F   0  0  0  0  0  0  0  0  0  0  0  0
    8.3433    3.5490    0.0000 F   0  0  0  0  0  0  0  0  0  0  0  0
  1  2  1  0
  2  3  1  0
  3  4  1  0
  4  5  2  0
  4  6  1  0
  6  7  1  0
  7  8  1  0
  7  9  1  0
  7 10  1  0
 10 11  1  0
 10 12  1  0
 10 13  1  0
 13 14  1  0
 13 15  1  0
 13 16  1  0
M  END
$$$$

     RDKit          2D

 14 13  0  0  0  0  0  0  0  0999 V2000
   -1.2990    0.7500    0.0000 N   0  0  0  0  0  0  0  0  0  0  0  0
    0.0000    0.0000    0.0000 C   0  0  0  0  0  0  0  0  0  0  0  0
   -0.0000   -1.5000    0.0000 N   0  0  0  0  0  0  0  0  0  0  0  0
   -1.2990   -2.2500    0.0000 N   0  0  0  0  0  0  0  0  0  0  0  0
    1.2990    0.7500    0.0000 C   0  0  0  0  0  0  0  0  0  0  0  0
    2.0490   -0.5490    0.0000 F   0  0  0  0  0  0  0  0  0  0  0  0
    0.5490    2.0490    0.0000 F   0  0  0  0  0  0  0  0  0  0  0  0
    2.5981    1.5000    0.0000 C   0  0  0  0  0  0  0  0  0  0  0  0
    1.8481    2.7990    0.0000 F   0  0  0  0  0  0  0  0  0  0  0  0
    3.3481    0.2010    0.0000 F   0  0  0  0  0  0  0  0  0  0  0  0
    3.8971    2.2500    0.0000 C   0  0  0  0  0  0  0  0  0  0  0  0
    5.1962    3.0000    0.0000 F   0  0  0  0  0  0  0  0  0  0  0  0
    4.6471    0.9510    0.0000 F   0  0  0  0  0  0  0  0  0  0  0  0
    3.1471    3.5490    0.0000 F   0  0  0  0  0  0  0  0  0  0  0  0
  1  2  2  0
  2  3  1  0
  3  4  1  0
  2  5  1  0
  5  6  1  0
  5  7  1  0
  5  8  1  0
  8  9  1  0
  8 10  1  0
  8 11  1  0
 11 12  1  0
 11 13  1  0
 11 14  1  0
M  END
$$$$

     RDKit          2D

 16 15  0  0  0  0  0  0  0  0999 V2000
    1.2990    2.2500    0.0000 N   0  0  0  0  0  0  0  0  0  0  0  0
    1.2990    0.7500    0.0000 C   0  0  0  0  0  0  0  0  0  0  0  0
    0.0000    0.0000    0.0000 C   0  0  0  0  0  0  0  0  0  0  0  0
   -1.2990    0.7500    0.0000 C   0  0  0  0  0  0  0  0  0  0  0  0
   -1.2990    2.2500    0.0000 O   0  0  0  0  0  0  0  0  0  0  0  0
   -2.5981    0.0000    0.0000 O   0  0  0  0  0  0  0  0  0  0  0  0
    2.5981   -0.0000    0.0000 C   0  0  0  0  0  0  0  0  0  0  0  0
    3.3481    1.2990    0.0000 F   0  0  0  0  0  0  0  0  0  0  0  0
    1.8481   -1.2990    0.0000 F   0  0  0  0  0  0  0  0  0  0  0  0
    3.8971   -0.7500    0.0000 C   0  0  0  0  0  0  0  0  0  0  0  0
    3.1471   -2.0490    0.0000 F   0  0  0  0  0  0  0  0  0  0  0  0
    4.6471    0.5490    0.0000 F   0  0  0  0  0  0  0  0  0  0  0  0
    5.1962   -1.5000    0.0000 C   0  0  0  0  0  0  0  0  0  0  0  0
    6.4952   -2.2500    0.0000 F   0  0  0  0  0  0  0  0  0  0  0  0
    5.9462   -0.2010    0.0000 F   0  0  0  0  0  0  0  0  0  0  0  0
    4.4462   -2.7990    0.0000 F   0  0  0  0  0  0  0  0  0  0  0  0
  1  2  1  0
  2  3  1  0
  3  4  1  0
  4  5  2  0
  4  6  1  0
  2  7  1  0
  7  8  1  0
  7  9  1  0
  7 10  1  0
 10 11  1  0
 10 12  1  0
 10 13  1  0
 13 14  1  0
 13 15  1  0
 13 16  1  0
M  END
$$$$

     RDKit          2D

 40 39  0  0  0  0  0  0  0  0999 V2000
    0.0000    0.0000    0.0000 C   0  0  0  0  0  0  0  0  0  0  0  0
    1.2990    0.7500    0.0000 C   0  0  0  0  0  0  0  0  0  0  0  0
    2.5981   -0.0000    0.0000 C   0  0  0  0  0  0  0  0  0  0  0  0
    1.2990    2.2500    0.0000 Si  0  0  0  0  0  4  0  0  0  0  0  0
    2.5981    3.0000    0.0000 C   0  0  0  0  0  0  0  0  0  0  0  0
    2.5981    4.5000    0.0000 C   0  0  0  0  0  0  0  0  0  0  0  0
    3.8971    5.2500    0.0000 C   0  0  0  0  0  0  0  0  0  0  0  0
    3.1471    6.5490    0.0000 F   0  0  0  0  0  0  0  0  0  0  0  0
    4.6471    3.9510    0.0000 F   0  0  0  0  0  0  0  0  0  0  0  0
    5.1962    6.0000    0.0000 C   0  0  0  0  0  0  0  0  0  0  0  0
    5.9462    4.7010    0.0000 F   0  0  0  0  0  0  0  0  0  0  0  0
    4.4462    7.2990    0.0000 F   0  0  0  0  0  0  0  0  0  0  0  0
    6.4952    6.7500    0.0000 C   0  0  0  0  0  0  0  0  0  0  0  0
    5.7452    8.0490    0.0000 F   0  0  0  0  0  0  0  0  0  0  0  0
    7.2452    5.4510    0.0000 F   0  0  0  0  0  0  0  0  0  0  0  0
    7.7942    7.5000    0.0000 C   0  0  0  0  0  0  0  0  0  0  0  0
    8.5442    6.2010    0.0000 F   0  0  0  0  0  0  0  0  0  0  0  0
    7.0442    8.7990    0.0000 F   0  0  0  0  0  0  0  0  0  0  0  0
    9.0933    8.2500    0.0000 C   0  0  0  0  0  0  0  0  0  0  0  0
    8.3433    9.5490    0.0000 F   0  0  0  0  0  0  0  0  0  0  0  0
    9.8433    6.9510    0.0000 F   0  0  0  0  0  0  0  0  0  0  0  0
   10.3923    9.0000    0.0000 C   0  0  0  0  0  0  0  0  0  0  0  0
   11.1423    7.7010    0.0000 F   0  0  0  0  0  0  0  0  0  0  0  0
    9.6423   10.2990    0.0000 F   0  0  0  0  0  0  0  0  0  0  0  0
   11.6913    9.7500    0.0000 C   0  0  0  0  0  0  0  0  0  0  0  0
   10.9413   11.0490    0.0000 F   0  0  0  0  0  0  0  0  0  0  0  0
   12.4413    8.4510    0.0000 F   0  0  0  0  0  0  0  0  0  0  0  0
   12.9904   10.5000    0.0000 C   0  0  0  0  0  0  0  0  0  0  0  0
   13.7404    9.2010    0.0000 F   0  0  0  0  0  0  0  0  0  0  0  0
   12.2404   11.7990    0.0000 F   0  0  0  0  0  0  0  0  0  0  0  0
   14.2894   11.2500    0.0000 C   0  0  0  0  0  0  0  0  0  0  0  0
   13.5394   12.5490    0.0000 F   0  0  0  0  0  0  0  0  0  0  0  0
   15.0394    9.9510    0.0000 F   0  0  0  0  0  0  0  0  0  0  0  0
   15.5885   12.0000    0.0000 C   0  0  0  0  0  0  0  0  0  0  0  0
   16.8875   12.7500    0.0000 F   0  0  0  0  0  0  0  0  0  0  0  0
   16.3385   10.7010    0.0000 F   0  0  0  0  0  0  0  0  0  0  0  0
   14.8385   13.2990    0.0000 F   0  0  0  0  0  0  0  0  0  0  0  0
    0.0000    3.0000    0.0000 C   0  0  0  0  0  0  0  0  0  0  0  0
    0.0000    4.5000    0.0000 C   0  0  0  0  0  0  0  0  0  0  0  0
   -1.2990    2.2500    0.0000 C   0  0  0  0  0  0  0  0  0  0  0  0
  1  2  1  0
  2  3  1  0
  2  4  1  0
  4  5  1  0
  5  6  1  0
  6  7  1  0
  7  8  1  0
  7  9  1  0
  7 10  1  0
 10 11  1  0
 10 12  1  0
 10 13  1  0
 13 14  1  0
 13 15  1  0
 13 16  1  0
 16 17  1  0
 16 18  1  0
 16 19  1  0
 19 20  1  0
 19 21  1  0
 19 22  1  0
 22 23  1  0
 22 24  1  0
 22 25  1  0
 25 26  1  0
 25 27  1  0
 25 28  1  0
 28 29  1  0
 28 30  1  0
 28 31  1  0
 31 32  1  0
 31 33  1  0
 31 34  1  0
 34 35  1  0
 34 36  1  0
 34 37  1  0
  4 38  1  0
 38 39  1  0
 38 40  1  0
M  END
$$$$

     RDKit          2D

 58 57  0  0  0  0  0  0  0  0999 V2000
   11.6913    6.7500    0.0000 F   0  0  0  0  0  0  0  0  0  0  0  0
   10.3923    6.0000    0.0000 C   0  0  0  0  0  0  0  0  0  0  0  0
    9.6423    7.2990    0.0000 F   0  0  0  0  0  0  0  0  0  0  0  0
   11.1423    4.7010    0.0000 F   0  0  0  0  0  0  0  0  0  0  0  0
    9.0933    5.2500    0.0000 C   0  0  0  0  0  0  0  0  0  0  0  0
    9.8433    3.9510    0.0000 F   0  0  0  0  0  0  0  0  0  0  0  0
    8.3433    6.5490    0.0000 F   0  0  0  0  0  0  0  0  0  0  0  0
    7.7942    4.5000    0.0000 C   0  0  0  0  0  0  0  0  0  0  0  0
    7.0442    5.7990    0.0000 F   0  0  0  0  0  0  0  0  0  0  0  0
    8.5442    3.2010    0.0000 F   0  0  0  0  0  0  0  0  0  0  0  0
    6.4952    3.7500    0.0000 C   0  0  0  0  0  0  0  0  0  0  0  0
    7.2452    2.4510    0.0000 F   0  0  0  0  0  0  0  0  0  0  0  0
    5.7452    5.0490    0.0000 F   0  0  0  0  0  0  0  0  0  0  0  0
    5.1962    3.0000    0.0000 C   0  0  0  0  0  0  0  0  0  0  0  0
    4.4462    4.2990    0.0000 F   0  0  0  0  0  0  0  0  0  0  0  0
    5.9462    1.7010    0.0000 F   0  0  0  0  0  0  0  0  0  0  0  0
    3.8971    2.2500    0.0000 C   0  0  0  0  0  0  0  0  0  0  0  0
    4.6471    0.9510    0.0000 F   0  0  0  0  0  0  0  0  0  0  0  0
    3.1471    3.5490    0.0000 F   0  0  0  0  0  0  0  0  0  0  0  0
    2.5981    1.5000    0.0000 C   0  0  0  0  0  0  0  0  0  0  0  0
    1.8481    2.7990    0.0000 F   0  0  0  0  0  0  0  0  0  0  0  0
    3.3481    0.2010    0.0000 F   0  0  0  0  0  0  0  0  0  0  0  0
    1.2990    0.7500    0.0000 C   0  0  0  0  0  0  0  0  0  0  0  0
    2.0490   -0.5490    0.0000 F   0  0  0  0  0  0  0  0  0  0  0  0
    0.5490    2.0490    0.0000 F   0  0  0  0  0  0  0  0  0  0  0  0
    0.0000    0.0000    0.0000 C   0  0  0  0  0  0  0  0  0  0  0  0
   -1.2990    0.7500    0.0000 C   0  0  0  0  0  0  0  0  0  0  0  0
   -1.2990    2.2500    0.0000 I   0  0  0  0  0  0  0  0  0  0  0  0
   -2.5981    0.0000    0.0000 C   0  0  0  0  0  0  0  0  0  0  0  0
   -3.8971    0.7500    0.0000 C   0  0  0  0  0  0  0  0  0  0  0  0
   -5.1962    0.0000    0.0000 C   0  0  0  0  0  0  0  0  0  0  0  0
   -5.1962   -1.5000    0.0000 I   0  0  0  0  0  0  0  0  0  0  0  0
   -6.4952    0.7500    0.0000 C   0  0  0  0  0  0  0  0  0  0  0  0
   -7.7942    0.0000    0.0000 C   0  0  0  0  0  0  0  0  0  0  0  0
   -8.5442    1.2990    0.0000 F   0  0  0  0  0  0  0  0  0  0  0  0
   -7.0442   -1.2990    0.0000 F   0  0  0  0  0  0  0  0  0  0  0  0
   -9.0933   -0.7500    0.0000 C   0  0  0  0  0  0  0  0  0  0  0  0
   -8.3433   -2.0490    0.0000 F   0  0  0  0  0  0  0  0  0  0  0  0
   -9.8433    0.5490    0.0000 F   0  0  0  0  0  0  0  0  0  0  0  0
  -10.3923   -1.5000    0.0000 C   0  0  0  0  0  0  0  0  0  0  0  0
  -11.1423   -0.2010    0.0000 F   0  0  0  0  0  0  0  0  0  0  0  0
   -9.6423   -2.7990    0.0000 F   0  0  0  0  0  0  0  0  0  0  0  0
  -11.6913   -2.2500    0.0000 C   0  0  0  0  0  0  0  0  0  0  0  0
  -10.9413   -3.5490    0.0000 F   0  0  0  0  0  0  0  0  0  0  0  0
  -12.4413   -0.9510    0.0000 F   0  0  0  0  0  0  0  0  0  0  0  0
  -12.9904   -3.0000    0.0000 C   0  0  0  0  0  0  0  0  0  0  0  0
  -13.7404   -1.7010    0.0000 F   0  0  0  0  0  0  0  0  0  0  0  0
  -12.2404   -4.2990    0.0000 F   0  0  0  0  0  0  0  0  0  0  0  0
  -14.2894   -3.7500    0.0000 C   0  0  0  0  0  0  0  0  0  0  0  0
  -13.5394   -5.0490    0.0000 F   0  0  0  0  0  0  0  0  0  0  0  0
  -15.0394   -2.4510    0.0000 F   0  0  0  0  0  0  0  0  0  0  0  0
  -15.5885   -4.5000    0.0000 C   0  0  0  0  0  0  0  0  0  0  0  0
  -16.3385   -3.2010    0.0000 F   0  0  0  0  0  0  0  0  0  0  0  0
  -14.8385   -5.7990    0.0000 F   0  0  0  0  0  0  0  0  0  0  0  0
  -16.8875   -5.2500    0.0000 C   0  0  0  0  0  0  0  0  0  0  0  0
  -18.1865   -6.0000    0.0000 F   0  0  0  0  0  0  0  0  0  0  0  0
  -16.1375   -6.5490    0.0000 F   0  0  0  0  0  0  0  0  0  0  0  0
  -17.6375   -3.9510    0.0000 F   0  0  0  0  0  0  0  0  0  0  0  0
  1  2  1  0
  2  3  1  0
  2  4  1  0
  2  5  1  0
  5  6  1  0
  5  7  1  0
  5  8  1  0
  8  9  1  0
  8 10  1  0
  8 11  1  0
 11 12  1  0
 11 13  1  0
 11 14  1  0
 14 15  1  0
 14 16  1  0
 14 17  1  0
 17 18  1  0
 17 19  1  0
 17 20  1  0
 20 21  1  0
 20 22  1  0
 20 23  1  0
 23 24  1  0
 23 25  1  0
 23 26  1  0
 26 27  1  0
 27 28  1  0
 27 29  1  0
 29 30  1  0
 30 31  1  0
 31 32  1  0
 31 33  1  0
 33 34  1  0
 34 35  1  0
 34 36  1  0
 34 37  1  0
 37 38  1  0
 37 39  1  0
 37 40  1  0
 40 41  1  0
 40 42  1  0
 40 43  1  0
 43 44  1  0
 43 45  1  0
 43 46  1  0
 46 47  1  0
 46 48  1  0
 46 49  1  0
 49 50  1  0
 49 51  1  0
 49 52  1  0
 52 53  1  0
 52 54  1  0
 52 55  1  0
 55 56  1  0
 55 57  1  0
 55 58  1  0
M  END
$$$$

     RDKit          2D

 17 16  0  0  0  0  0  0  0  0999 V2000
    0.0000    0.0000    0.0000 C   0  0  0  0  0  0  0  0  0  0  0  0
    1.2990    0.7500    0.0000 C   0  0  0  0  0  0  0  0  0  0  0  0
    2.5981   -0.0000    0.0000 C   0  0  0  0  0  0  0  0  0  0  0  0
    3.8971    0.7500    0.0000 C   0  0  0  0  0  0  0  0  0  0  0  0
    3.8971    2.2500    0.0000 O   0  0  0  0  0  0  0  0  0  0  0  0
    5.1962   -0.0000    0.0000 O   0  0  0  0  0  0  0  0  0  0  0  0
    6.4952    0.7500    0.0000 C   0  0  0  0  0  0  0  0  0  0  0  0
    7.7942   -0.0000    0.0000 C   0  0  0  0  0  0  0  0  0  0  0  0
    8.5442    1.2990    0.0000 F   0  0  0  0  0  0  0  0  0  0  0  0
    7.0442   -1.2990    0.0000 F   0  0  0  0  0  0  0  0  0  0  0  0
    9.0933   -0.7500    0.0000 C   0  0  0  0  0  0  0  0  0  0  0  0
    8.3433   -2.0490    0.0000 F   0  0  0  0  0  0  0  0  0  0  0  0
    9.8433    0.5490    0.0000 F   0  0  0  0  0  0  0  0  0  0  0  0
   10.3923   -1.5000    0.0000 C   0  0  0  0  0  0  0  0  0  0  0  0
   11.6913   -2.2500    0.0000 F   0  0  0  0  0  0  0  0  0  0  0  0
   11.1423   -0.2010    0.0000 F   0  0  0  0  0  0  0  0  0  0  0  0
    9.6423   -2.7990    0.0000 F   0  0  0  0  0  0  0  0  0  0  0  0
  1  2  2  0
  2  3  1  0
  3  4  1  0
  4  5  2  0
  4  6  1  0
  6  7  1  0
  7  8  1  0
  8  9  1  0
  8 10  1  0
  8 11  1  0
 11 12  1  0
 11 13  1  0
 11 14  1  0
 14 15  1  0
 14 16  1  0
 14 17  1  0
M  END
$$$$

     RDKit          2D

 22 21  0  0  0  0  0  0  0  0999 V2000
    0.0000    0.0000    0.0000 C   0  0  0  0  0  0  0  0  0  0  0  0
    1.2990    0.7500    0.0000 C   0  0  0  0  0  0  0  0  0  0  0  0
    2.0490   -0.5490    0.0000 F   0  0  0  0  0  0  0  0  0  0  0  0
    0.5490    2.0490    0.0000 F   0  0  0  0  0  0  0  0  0  0  0  0
    2.5981    1.5000    0.0000 O   0  0  0  0  0  0  0  0  0  0  0  0
    2.5981    3.0000    0.0000 C   0  0  0  0  0  0  0  0  0  0  0  0
    3.8971    3.7500    0.0000 C   0  0  0  0  0  0  0  0  0  0  0  0
    3.1471    5.0490    0.0000 F   0  0  0  0  0  0  0  0  0  0  0  0
    4.6471    2.4510    0.0000 F   0  0  0  0  0  0  0  0  0  0  0  0
    5.1962    4.5000    0.0000 C   0  0  0  0  0  0  0  0  0  0  0  0
    5.9462    3.2010    0.0000 F   0  0  0  0  0  0  0  0  0  0  0  0
    4.4462    5.7990    0.0000 F   0  0  0  0  0  0  0  0  0  0  0  0
    6.4952    5.2500    0.0000 C   0  0  0  0  0  0  0  0  0  0  0  0
    5.7452    6.5490    0.0000 F   0  0  0  0  0  0  0  0  0  0  0  0
    7.2452    3.9510    0.0000 F   0  0  0  0  0  0  0  0  0  0  0  0
    7.7942    6.0000    0.0000 C   0  0  0  0  0  0  0  0  0  0  0  0
    8.5442    4.7010    0.0000 F   0  0  0  0  0  0  0  0  0  0  0  0
    7.0442    7.2990    0.0000 F   0  0  0  0  0  0  0  0  0  0  0  0
    9.0933    6.7500    0.0000 C   0  0  0  0  0  0  0  0  0  0  0  0
   10.3923    7.5000    0.0000 F   0  0  0  0  0  0  0  0  0  0  0  0
    8.3433    8.0490    0.0000 F   0  0  0  0  0  0  0  0  0  0  0  0
    9.8433    5.4510    0.0000 F   0  0  0  0  0  0  0  0  0  0  0  0
  1  2  1  0
  2  3  1  0
  2  4  1  0
  2  5  1  0
  5  6  1  0
  6  7  1  0
  7  8  1  0
  7  9  1  0
  7 10  1  0
 10 11  1  0
 10 12  1  0
 10 13  1  0
 13 14  1  0
 13 15  1  0
 13 16  1  0
 16 17  1  0
 16 18  1  0
 16 19  1  0
 19 20  1  0
 19 21  1  0
 19 22  1  0
M  END
$$$$

     RDKit          2D

 19 19  0  0  0  0  0  0  0  0999 V2000
    8.2500   -6.4952    0.0000 F   0  0  0  0  0  0  0  0  0  0  0  0
    7.5000   -5.1962    0.0000 C   0  0  0  0  0  0  0  0  0  0  0  0
    8.7990   -4.4462    0.0000 F   0  0  0  0  0  0  0  0  0  0  0  0
    6.2010   -5.9462    0.0000 F   0  0  0  0  0  0  0  0  0  0  0  0
    6.7500   -3.8971    0.0000 C   0  0  0  0  0  0  0  0  0  0  0  0
    5.4510   -4.6471    0.0000 F   0  0  0  0  0  0  0  0  0  0  0  0
    8.0490   -3.1471    0.0000 F   0  0  0  0  0  0  0  0  0  0  0  0
    6.0000   -2.5981    0.0000 C   0  0  0  0  0  0  0  0  0  0  0  0
    4.7010   -3.3481    0.0000 F   0  0  0  0  0  0  0  0  0  0  0  0
    7.2990   -1.8481    0.0000 F   0  0  0  0  0  0  0  0  0  0  0  0
    5.2500   -1.2990    0.0000 C   0  0  0  0  0  0  0  0  0  0  0  0
    3.7500   -1.2990    0.0000 S   0  0  0  0  0  0  0  0  0  0  0  0
    3.0000    0.0000    0.0000 C   0  0  0  0  0  0  0  0  0  0  0  0
    1.5000    0.0000    0.0000 C   0  0  0  0  0  0  0  0  0  0  0  0
    0.7500   -1.2990    0.0000 C   0  0  0  0  0  0  0  0  0  0  0  0
   -0.7500   -1.2990    0.0000 C   0  0  0  0  0  0  0  0  0  0  0  0
   -1.5000    0.0000    0.0000 C   0  0  0  0  0  0  0  0  0  0  0  0
   -0.7500    1.2990    0.0000 C   0  0  0  0  0  0  0  0  0  0  0  0
    0.7500    1.2990    0.0000 C   0  0  0  0  0  0  0  0  0  0  0  0
  1  2  1  0
  2  3  1  0
  2  4  1  0
  2  5  1  0
  5  6  1  0
  5  7  1  0
  5  8  1  0
  8  9  1  0
  8 10  1  0
  8 11  1  0
 11 12  1  0
 12 13  1  0
 13 14  1  0
 14 15  2  0
 15 16  1  0
 16 17  2  0
 17 18  1  0
 18 19  2  0
 19 14  1  0
M  END
$$$$

     RDKit          2D

 28 27  0  0  0  0  0  0  0  0999 V2000
   -1.2990    0.7500    0.0000 O   0  0  0  0  0  0  0  0  0  0  0  0
    0.0000    0.0000    0.0000 C   0  0  0  0  0  0  0  0  0  0  0  0
   -0.0000   -1.5000    0.0000 Br  0  0  0  0  0  0  0  0  0  0  0  0
    1.2990    0.7500    0.0000 C   0  0  0  0  0  0  0  0  0  0  0  0
    0.5490    2.0490    0.0000 F   0  0  0  0  0  0  0  0  0  0  0  0
    2.0490   -0.5490    0.0000 F   0  0  0  0  0  0  0  0  0  0  0  0
    2.5981    1.5000    0.0000 C   0  0  0  0  0  0  0  0  0  0  0  0
    3.3481    0.2010    0.0000 F   0  0  0  0  0  0  0  0  0  0  0  0
    1.8481    2.7990    0.0000 F   0  0  0  0  0  0  0  0  0  0  0  0
    3.8971    2.2500    0.0000 C   0  0  0  0  0  0  0  0  0  0  0  0
    3.1471    3.5490    0.0000 F   0  0  0  0  0  0  0  0  0  0  0  0
    4.6471    0.9510    0.0000 F   0  0  0  0  0  0  0  0  0  0  0  0
    5.1962    3.0000    0.0000 C   0  0  0  0  0  0  0  0  0  0  0  0
    5.9462    1.7010    0.0000 F   0  0  0  0  0  0  0  0  0  0  0  0
    4.4462    4.2990    0.0000 F   0  0  0  0  0  0  0  0  0  0  0  0
    6.4952    3.7500    0.0000 C   0  0  0  0  0  0  0  0  0  0  0  0
    7.2452    2.4510    0.0000 F   0  0  0  0  0  0  0  0  0  0  0  0
    5.7452    5.0490    0.0000 F   0  0  0  0  0  0  0  0  0  0  0  0
    7.7942    4.5000    0.0000 C   0  0  0  0  0  0  0  0  0  0  0  0
    7.0442    5.7990    0.0000 F   0  0  0  0  0  0  0  0  0  0  0  0
    8.5442    3.2010    0.0000 F   0  0  0  0  0  0  0  0  0  0  0  0
    9.0933    5.2500    0.0000 C   0  0  0  0  0  0  0  0  0  0  0  0
    9.8433    3.9510    0.0000 F   0  0  0  0  0  0  0  0  0  0  0  0
    8.3433    6.5490    0.0000 F   0  0  0  0  0  0  0  0  0  0  0  0
   10.3923    6.0000    0.0000 C   0  0  0  0  0  0  0  0  0  0  0  0
   11.6913    6.7500    0.0000 F   0  0  0  0  0  0  0  0  0  0  0  0
    9.6423    7.2990    0.0000 F   0  0  0  0  0  0  0  0  0  0  0  0
   11.1423    4.7010    0.0000 F   0  0  0  0  0  0  0  0  0  0  0  0
  1  2  2  0
  2  3  1  0
  2  4  1  0
  4  5  1  0
  4  6  1  0
  4  7  1  0
  7  8  1  0
  7  9  1  0
  7 10  1  0
 10 11  1  0
 10 12  1  0
 10 13  1  0
 13 14  1  0
 13 15  1  0
 13 16  1  0
 16 17  1  0
 16 18  1  0
 16 19  1  0
 19 20  1  0
 19 21  1  0
 19 22  1  0
 22 23  1  0
 22 24  1  0
 22 25  1  0
 25 26  1  0
 25 27  1  0
 25 28  1  0
M  END
$$$$

     RDKit          2D

 30 29  0  0  0  0  0  0  0  0999 V2000
   -2.5981    0.0000    0.0000 O   0  0  0  0  0  0  0  0  0  0  0  0
   -1.2990    0.7500    0.0000 P   0  0  0  0  0  5  0  0  0  0  0  0
   -1.2990    2.2500    0.0000 O   0  0  0  0  0  0  0  0  0  0  0  0
    0.0000    0.0000    0.0000 C   0  0  0  0  0  0  0  0  0  0  0  0
    1.2990    0.7500    0.0000 C   0  0  0  0  0  0  0  0  0  0  0  0
    2.5981   -0.0000    0.0000 C   0  0  0  0  0  0  0  0  0  0  0  0
    3.3481    1.2990    0.0000 F   0  0  0  0  0  0  0  0  0  0  0  0
    1.8481   -1.2990    0.0000 F   0  0  0  0  0  0  0  0  0  0  0  0
    3.8971   -0.7500    0.0000 C   0  0  0  0  0  0  0  0  0  0  0  0
    3.1471   -2.0490    0.0000 F   0  0  0  0  0  0  0  0  0  0  0  0
    4.6471    0.5490    0.0000 F   0  0  0  0  0  0  0  0  0  0  0  0
    5.1962   -1.5000    0.0000 C   0  0  0  0  0  0  0  0  0  0  0  0
    5.9462   -0.2010    0.0000 F   0  0  0  0  0  0  0  0  0  0  0  0
    4.4462   -2.7990    0.0000 F   0  0  0  0  0  0  0  0  0  0  0  0
    6.4952   -2.2500    0.0000 C   0  0  0  0  0  0  0  0  0  0  0  0
    5.7452   -3.5490    0.0000 F   0  0  0  0  0  0  0  0  0  0  0  0
    7.2452   -0.9510    0.0000 F   0  0  0  0  0  0  0  0  0  0  0  0
    7.7942   -3.0000    0.0000 C   0  0  0  0  0  0  0  0  0  0  0  0
    8.5442   -1.7010    0.0000 F   0  0  0  0  0  0  0  0  0  0  0  0
    7.0442   -4.2990    0.0000 F   0  0  0  0  0  0  0  0  0  0  0  0
    9.0933   -3.7500    0.0000 C   0  0  0  0  0  0  0  0  0  0  0  0
    8.3433   -5.0490    0.0000 F   0  0  0  0  0  0  0  0  0  0  0  0
    9.8433   -2.4510    0.0000 F   0  0  0  0  0  0  0  0  0  0  0  0
   10.3923   -4.5000    0.0000 C   0  0  0  0  0  0  0  0  0  0  0  0
   11.1423   -3.2010    0.0000 F   0  0  0  0  0  0  0  0  0  0  0  0
    9.6423   -5.7990    0.0000 F   0  0  0  0  0  0  0  0  0  0  0  0
   11.6913   -5.2500    0.0000 C   0  0  0  0  0  0  0  0  0  0  0  0
   12.9904   -6.0000    0.0000 F   0  0  0  0  0  0  0  0  0  0  0  0
   10.9413   -6.5490    0.0000 F   0  0  0  0  0  0  0  0  0  0  0  0
   12.4413   -3.9510    0.0000 F   0  0  0  0  0  0  0  0  0  0  0  0
  1  2  2  0
  2  3  1  0
  2  4  1  0
  4  5  1  0
  5  6  1  0
  6  7  1  0
  6  8  1  0
  6  9  1  0
  9 10  1  0
  9 11  1  0
  9 12  1  0
 12 13  1  0
 12 14  1  0
 12 15  1  0
 15 16  1  0
 15 17  1  0
 15 18  1  0
 18 19  1  0
 18 20  1  0
 18 21  1  0
 21 22  1  0
 21 23  1  0
 21 24  1  0
 24 25  1  0
 24 26  1  0
 24 27  1  0
 27 28  1  0
 27 29  1  0
 27 30  1  0
M  END
$$$$

     RDKit          2D

 32 33  0  0  0  0  0  0  0  0999 V2000
   -2.6401   -3.1891    0.0000 C   0  0  0  0  0  0  0  0  0  0  0  0
   -1.2135   -2.7256    0.0000 N   0  0  0  0  0  0  0  0  0  0  0  0
   -0.0000   -3.6073    0.0000 C   0  0  0  0  0  0  0  0  0  0  0  0
    1.2135   -2.7256    0.0000 C   0  0  0  0  0  0  0  0  0  0  0  0
    2.6401   -3.1891    0.0000 S   0  0  0  0  0  0  0  0  0  0  0  0
    3.8536   -2.3075    0.0000 C   0  0  0  0  0  0  0  0  0  0  0  0
    5.0672   -3.1891    0.0000 C   0  0  0  0  0  0  0  0  0  0  0  0
    4.6036   -4.6157    0.0000 C   0  0  0  0  0  0  0  0  0  0  0  0
    3.1036   -4.6157    0.0000 C   0  0  0  0  0  0  0  0  0  0  0  0
    0.7500   -1.2990    0.0000 C   0  0  0  0  0  0  0  0  0  0  0  0
    1.5000    0.0000    0.0000 C   0  0  0  0  0  0  0  0  0  0  0  0
    0.7500    1.2990    0.0000 C   0  0  0  0  0  0  0  0  0  0  0  0
   -0.7500    1.2990    0.0000 C   0  0  0  0  0  0  0  0  0  0  0  0
   -1.5000    0.0000    0.0000 C   0  0  0  0  0  0  0  0  0  0  0  0
   -0.7500   -1.2990    0.0000 C   0  0  0  0  0  0  0  0  0  0  0  0
   -1.5000    3.7990    0.0000 O   0  0  0  0  0  0  0  0  0  0  0  0
    0.0000    3.7990    0.0000 S   0  0  0  0  0  0  0  0  0  0  0  0
    0.7912    3.7019    0.0000 O   0  0  0  0  0  0  0  0  0  0  0  0
   -0.0000    2.2990    0.0000 O   0  0  0  0  0  0  0  0  0  0  0  0
    0.0000    5.2990    0.0000 C   0  0  0  0  0  0  0  0  0  0  0  0
   -1.5000    5.2990    0.0000 F   0  0  0  0  0  0  0  0  0  0  0  0
    0.0000    6.7990    0.0000 F   0  0  0  0  0  0  0  0  0  0  0  0
    1.5000    5.2990    0.0000 C   0  0  0  0  0  0  0  0  0  0  0  0
    1.5000    6.7990    0.0000 F   0  0  0  0  0  0  0  0  0  0  0  0
    1.6080    4.4199    0.0000 F   0  0  0  0  0  0  0  0  0  0  0  0
    3.0000    5.2990    0.0000 C   0  0  0  0  0  0  0  0  0  0  0  0
    3.0000    6.7990    0.0000 F   0  0  0  0  0  0  0  0  0  0  0  0
    3.0000    3.7990    0.0000 F   0  0  0  0  0  0  0  0  0  0  0  0
    4.5000    5.2990    0.0000 C   0  0  0  0  0  0  0  0  0  0  0  0
    6.0000    5.2990    0.0000 F   0  0  0  0  0  0  0  0  0  0  0  0
    4.5000    3.7990    0.0000 F   0  0  0  0  0  0  0  0  0  0  0  0
    4.5000    6.7990    0.0000 F   0  0  0  0  0  0  0  0  0  0  0  0
  1  2  1  0
  2  3  1  0
  3  4  2  0
  4  5  1  0
  5  6  1  0
  6  7  1  0
  7  8  1  0
  8  9  1  0
  4 10  1  0
 10 11  2  0
 11 12  1  0
 12 13  2  0
 13 14  1  0
 14 15  2  0
 16 17  2  0
 17 18  2  0
 17 19  1  0
 17 20  1  0
 20 21  1  0
 20 22  1  0
 20 23  1  0
 23 24  1  0
 23 25  1  0
 23 26  1  0
 26 27  1  0
 26 28  1  0
 26 29  1  0
 29 30  1  0
 29 31  1  0
 29 32  1  0
 15  2  1  0
  9  5  1  0
 15 10  1  0
M  CHG  2   5   1  19  -1
M  END
$$$$

     RDKit          2D

 21 20  0  0  0  0  0  0  0  0999 V2000
    0.0000    0.0000    0.0000 C   0  0  0  0  0  0  0  0  0  0  0  0
    1.2990    0.7500    0.0000 C   0  0  0  0  0  0  0  0  0  0  0  0
    2.5981   -0.0000    0.0000 C   0  0  0  0  0  0  0  0  0  0  0  0
    3.8971    0.7500    0.0000 C   0  0  0  0  0  0  0  0  0  0  0  0
    5.1962   -0.0000    0.0000 C   0  0  0  0  0  0  0  0  0  0  0  0
    6.4952    0.7500    0.0000 C   0  0  0  0  0  0  0  0  0  0  0  0
    7.7942   -0.0000    0.0000 C   0  0  0  0  0  0  0  0  0  0  0  0
    9.0933    0.7500    0.0000 C   0  0  0  0  0  0  0  0  0  0  0  0
    7.7942   -1.5000    0.0000 O   0  0  0  0  0  0  0  0  0  0  0  0
    9.0933   -2.2500    0.0000 C   0  0  0  0  0  0  0  0  0  0  0  0
   10.3923   -1.5000    0.0000 O   0  0  0  0  0  0  0  0  0  0  0  0
    9.0933   -3.7500    0.0000 C   0  0  0  0  0  0  0  0  0  0  0  0
   10.5933   -3.7500    0.0000 F   0  0  0  0  0  0  0  0  0  0  0  0
    7.5933   -3.7500    0.0000 F   0  0  0  0  0  0  0  0  0  0  0  0
    9.0933   -5.2500    0.0000 C   0  0  0  0  0  0  0  0  0  0  0  0
    7.5933   -5.2500    0.0000 F   0  0  0  0  0  0  0  0  0  0  0  0
   10.5933   -5.2500    0.0000 F   0  0  0  0  0  0  0  0  0  0  0  0
    9.0933   -6.7500    0.0000 C   0  0  0  0  0  0  0  0  0  0  0  0
    9.0933   -8.2500    0.0000 F   0  0  0  0  0  0  0  0  0  0  0  0
   10.5933   -6.7500    0.0000 F   0  0  0  0  0  0  0  0  0  0  0  0
    7.5933   -6.7500    0.0000 F   0  0  0  0  0  0  0  0  0  0  0  0
  1  2  1  0
  2  3  1  0
  3  4  1  0
  4  5  1  0
  5  6  1  0
  6  7  1  0
  7  8  1  0
  7  9  1  0
  9 10  1  0
 10 11  2  0
 10 12  1  0
 12 13  1  0
 12 14  1  0
 12 15  1  0
 15 16  1  0
 15 17  1  0
 15 18  1  0
 18 19  1  0
 18 20  1  0
 18 21  1  0
M  END
$$$$

     RDKit          2D

 27 26  0  0  0  0  0  0  0  0999 V2000
   -2.2500   -1.2990    0.0000 O   0  0  0  0  0  0  0  0  0  0  0  0
   -0.7500   -1.2990    0.0000 C   0  0  0  0  0  0  0  0  0  0  0  0
    0.0000    0.0000    0.0000 C   0  0  0  0  0  0  0  0  0  0  0  0
    1.5000    0.0000    0.0000 C   0  0  0  0  0  0  0  0  0  0  0  0
    2.2500   -1.2990    0.0000 F   0  0  0  0  0  0  0  0  0  0  0  0
    2.2500    1.2990    0.0000 C   0  0  0  0  0  0  0  0  0  0  0  0
    3.5490    0.5490    0.0000 F   0  0  0  0  0  0  0  0  0  0  0  0
    0.9510    2.0490    0.0000 F   0  0  0  0  0  0  0  0  0  0  0  0
    3.0000    2.5981    0.0000 C   0  0  0  0  0  0  0  0  0  0  0  0
    1.7010    3.3481    0.0000 F   0  0  0  0  0  0  0  0  0  0  0  0
    4.2990    1.8481    0.0000 F   0  0  0  0  0  0  0  0  0  0  0  0
    3.7500    3.8971    0.0000 C   0  0  0  0  0  0  0  0  0  0  0  0
    5.0490    3.1471    0.0000 F   0  0  0  0  0  0  0  0  0  0  0  0
    2.4510    4.6471    0.0000 F   0  0  0  0  0  0  0  0  0  0  0  0
    4.5000    5.1962    0.0000 C   0  0  0  0  0  0  0  0  0  0  0  0
    3.2010    5.9462    0.0000 F   0  0  0  0  0  0  0  0  0  0  0  0
    5.7990    4.4462    0.0000 F   0  0  0  0  0  0  0  0  0  0  0  0
    5.2500    6.4952    0.0000 C   0  0  0  0  0  0  0  0  0  0  0  0
    6.5490    5.7452    0.0000 F   0  0  0  0  0  0  0  0  0  0  0  0
    3.9510    7.2452    0.0000 F   0  0  0  0  0  0  0  0  0  0  0  0
    6.0000    7.7942    0.0000 C   0  0  0  0  0  0  0  0  0  0  0  0
    4.7010    8.5442    0.0000 F   0  0  0  0  0  0  0  0  0  0  0  0
    7.2990    7.0442    0.0000 F   0  0  0  0  0  0  0  0  0  0  0  0
    6.7500    9.0933    0.0000 C   0  0  0  0  0  0  0  0  0  0  0  0
    7.5000   10.3923    0.0000 F   0  0  0  0  0  0  0  0  0  0  0  0
    8.0490    8.3433    0.0000 F   0  0  0  0  0  0  0  0  0  0  0  0
    5.4510    9.8433    0.0000 F   0  0  0  0  0  0  0  0  0  0  0  0
  1  2  2  0
  2  3  1  0
  3  4  2  0
  4  5  1  0
  4  6  1  0
  6  7  1  0
  6  8  1  0
  6  9  1  0
  9 10  1  0
  9 11  1  0
  9 12  1  0
 12 13  1  0
 12 14  1  0
 12 15  1  0
 15 16  1  0
 15 17  1  0
 15 18  1  0
 18 19  1  0
 18 20  1  0
 18 21  1  0
 21 22  1  0
 21 23  1  0
 21 24  1  0
 24 25  1  0
 24 26  1  0
 24 27  1  0
M  END
$$$$

     RDKit          2D

 28 27  0  0  0  0  0  0  0  0999 V2000
    1.2990    2.2500    0.0000 O   0  0  0  0  0  0  0  0  0  0  0  0
    1.2990    0.7500    0.0000 C   0  0  0  0  0  0  0  0  0  0  0  0
    0.0000    0.0000    0.0000 C   0  0  0  0  0  0  0  0  0  0  0  0
   -1.2990    0.7500    0.0000 O   0  0  0  0  0  0  0  0  0  0  0  0
   -2.5981    0.0000    0.0000 C   0  0  0  0  0  0  0  0  0  0  0  0
   -3.8971    0.7500    0.0000 C   0  0  0  0  0  0  0  0  0  0  0  0
   -4.6471   -0.5490    0.0000 F   0  0  0  0  0  0  0  0  0  0  0  0
   -3.1471    2.0490    0.0000 F   0  0  0  0  0  0  0  0  0  0  0  0
   -5.1962    1.5000    0.0000 C   0  0  0  0  0  0  0  0  0  0  0  0
   -4.4462    2.7990    0.0000 F   0  0  0  0  0  0  0  0  0  0  0  0
   -5.9462    0.2010    0.0000 F   0  0  0  0  0  0  0  0  0  0  0  0
   -6.4952    2.2500    0.0000 C   0  0  0  0  0  0  0  0  0  0  0  0
   -7.7942    3.0000    0.0000 F   0  0  0  0  0  0  0  0  0  0  0  0
   -7.2452    0.9510    0.0000 F   0  0  0  0  0  0  0  0  0  0  0  0
   -5.7452    3.5490    0.0000 F   0  0  0  0  0  0  0  0  0  0  0  0
    2.5981   -0.0000    0.0000 C   0  0  0  0  0  0  0  0  0  0  0  0
    3.8971    0.7500    0.0000 O   0  0  0  0  0  0  0  0  0  0  0  0
    5.1962   -0.0000    0.0000 C   0  0  0  0  0  0  0  0  0  0  0  0
    6.4952    0.7500    0.0000 C   0  0  0  0  0  0  0  0  0  0  0  0
    7.2452   -0.5490    0.0000 F   0  0  0  0  0  0  0  0  0  0  0  0
    5.7452    2.0490    0.0000 F   0  0  0  0  0  0  0  0  0  0  0  0
    7.7942    1.5000    0.0000 C   0  0  0  0  0  0  0  0  0  0  0  0
    7.0442    2.7990    0.0000 F   0  0  0  0  0  0  0  0  0  0  0  0
    8.5442    0.2010    0.0000 F   0  0  0  0  0  0  0  0  0  0  0  0
    9.0933    2.2500    0.0000 C   0  0  0  0  0  0  0  0  0  0  0  0
   10.3923    3.0000    0.0000 F   0  0  0  0  0  0  0  0  0  0  0  0
    9.8433    0.9510    0.0000 F   0  0  0  0  0  0  0  0  0  0  0  0
    8.3433    3.5490    0.0000 F   0  0  0  0  0  0  0  0  0  0  0  0
  1  2  1  0
  2  3  1  0
  3  4  1  0
  4  5  1  0
  5  6  1  0
  6  7  1  0
  6  8  1  0
  6  9  1  0
  9 10  1  0
  9 11  1  0
  9 12  1  0
 12 13  1  0
 12 14  1  0
 12 15  1  0
  2 16  1  0
 16 17  1  0
 17 18  1  0
 18 19  1  0
 19 20  1  0
 19 21  1  0
 19 22  1  0
 22 23  1  0
 22 24  1  0
 22 25  1  0
 25 26  1  0
 25 27  1  0
 25 28  1  0
M  END
$$$$

     RDKit          2D

 18 17  0  0  0  0  0  0  0  0999 V2000
    0.0000    0.0000    0.0000 C   0  0  0  0  0  0  0  0  0  0  0  0
    1.2990    0.7500    0.0000 C   0  0  0  0  0  0  0  0  0  0  0  0
    2.5981   -0.0000    0.0000 C   0  0  0  0  0  0  0  0  0  0  0  0
    3.8971    0.7500    0.0000 C   0  0  0  0  0  0  0  0  0  0  0  0
    3.8971    2.2500    0.0000 O   0  0  0  0  0  0  0  0  0  0  0  0
    5.1962   -0.0000    0.0000 C   0  0  0  0  0  0  0  0  0  0  0  0
    5.9462    1.2990    0.0000 F   0  0  0  0  0  0  0  0  0  0  0  0
    4.4462   -1.2990    0.0000 F   0  0  0  0  0  0  0  0  0  0  0  0
    6.4952   -0.7500    0.0000 C   0  0  0  0  0  0  0  0  0  0  0  0
    5.7452   -2.0490    0.0000 F   0  0  0  0  0  0  0  0  0  0  0  0
    7.2452    0.5490    0.0000 F   0  0  0  0  0  0  0  0  0  0  0  0
    7.7942   -1.5000    0.0000 C   0  0  0  0  0  0  0  0  0  0  0  0
    9.0933   -2.2500    0.0000 F   0  0  0  0  0  0  0  0  0  0  0  0
    8.5442   -0.2010    0.0000 F   0  0  0  0  0  0  0  0  0  0  0  0
    7.0442   -2.7990    0.0000 F   0  0  0  0  0  0  0  0  0  0  0  0
    2.5981   -1.5000    0.0000 N   0  0  0  0  0  0  0  0  0  0  0  0
    1.2990   -2.2500    0.0000 O   0  0  0  0  0  0  0  0  0  0  0  0
    3.8971   -2.2500    0.0000 O   0  0  0  0  0  0  0  0  0  0  0  0
  1  2  1  0
  2  3  1  0
  3  4  1  0
  4  5  1  0
  4  6  1  0
  6  7  1  0
  6  8  1  0
  6  9  1  0
  9 10  1  0
  9 11  1  0
  9 12  1  0
 12 13  1  0
 12 14  1  0
 12 15  1  0
  3 16  1  0
 16 17  2  0
 16 18  1  0
M  CHG  2  16   1  18  -1
M  END
$$$$

     RDKit          2D

 19 19  0  0  0  0  0  0  0  0999 V2000
    3.0000    0.0000    0.0000 O   0  0  0  0  0  0  0  0  0  0  0  0
    1.5000    0.0000    0.0000 C   0  0  0  0  0  0  0  0  0  0  0  0
    0.7500   -1.2990    0.0000 C   0  0  0  0  0  0  0  0  0  0  0  0
   -0.7500   -1.2990    0.0000 C   0  0  0  0  0  0  0  0  0  0  0  0
   -1.5000    0.0000    0.0000 C   0  0  0  0  0  0  0  0  0  0  0  0
   -3.0000    0.0000    0.0000 O   0  0  0  0  0  0  0  0  0  0  0  0
   -3.7500    1.2990    0.0000 C   0  0  0  0  0  0  0  0  0  0  0  0
   -5.2500    1.2990    0.0000 C   0  0  0  0  0  0  0  0  0  0  0  0
   -5.2500    2.7990    0.0000 F   0  0  0  0  0  0  0  0  0  0  0  0
   -5.2500   -0.2010    0.0000 F   0  0  0  0  0  0  0  0  0  0  0  0
   -6.7500    1.2990    0.0000 C   0  0  0  0  0  0  0  0  0  0  0  0
   -6.7500   -0.2010    0.0000 F   0  0  0  0  0  0  0  0  0  0  0  0
   -6.7500    2.7990    0.0000 F   0  0  0  0  0  0  0  0  0  0  0  0
   -8.2500    1.2990    0.0000 C   0  0  0  0  0  0  0  0  0  0  0  0
   -9.7500    1.2990    0.0000 F   0  0  0  0  0  0  0  0  0  0  0  0
   -8.2500    2.7990    0.0000 F   0  0  0  0  0  0  0  0  0  0  0  0
   -8.2500   -0.2010    0.0000 F   0  0  0  0  0  0  0  0  0  0  0  0
   -0.7500    1.2990    0.0000 C   0  0  0  0  0  0  0  0  0  0  0  0
    0.7500    1.2990    0.0000 C   0  0  0  0  0  0  0  0  0  0  0  0
  1  2  1  0
  2  3  2  0
  3  4  1  0
  4  5  2  0
  5  6  1  0
  6  7  1  0
  7  8  1  0
  8  9  1  0
  8 10  1  0
  8 11  1  0
 11 12  1  0
 11 13  1  0
 11 14  1  0
 14 15  1  0
 14 16  1  0
 14 17  1  0
  5 18  1  0
 18 19  2  0
 19  2  1  0
M  END
$$$$

     RDKit          2D

 37 36  0  0  0  0  0  0  0  0999 V2000
   -2.5981    1.5000    0.0000 O   0  0  0  0  0  0  0  0  0  0  0  0
   -1.2990    0.7500    0.0000 P   0  0  0  0  0  0  0  0  0  0  0  0
   -2.0490   -0.5490    0.0000 O   0  0  0  0  0  0  0  0  0  0  0  0
   -0.5490    2.0490    0.0000 O   0  0  0  0  0  0  0  0  0  0  0  0
    0.0000    0.0000    0.0000 C   0  0  0  0  0  0  0  0  0  0  0  0
    1.2990    0.7500    0.0000 C   0  0  0  0  0  0  0  0  0  0  0  0
    2.5981   -0.0000    0.0000 C   0  0  0  0  0  0  0  0  0  0  0  0
    3.3481    1.2990    0.0000 F   0  0  0  0  0  0  0  0  0  0  0  0
    1.8481   -1.2990    0.0000 F   0  0  0  0  0  0  0  0  0  0  0  0
    3.8971   -0.7500    0.0000 C   0  0  0  0  0  0  0  0  0  0  0  0
    3.1471   -2.0490    0.0000 F   0  0  0  0  0  0  0  0  0  0  0  0
    4.6471    0.5490    0.0000 F   0  0  0  0  0  0  0  0  0  0  0  0
    5.1962   -1.5000    0.0000 C   0  0  0  0  0  0  0  0  0  0  0  0
    5.9462   -0.2010    0.0000 F   0  0  0  0  0  0  0  0  0  0  0  0
    4.4462   -2.7990    0.0000 F   0  0  0  0  0  0  0  0  0  0  0  0
    6.4952   -2.2500    0.0000 C   0  0  0  0  0  0  0  0  0  0  0  0
    5.7452   -3.5490    0.0000 F   0  0  0  0  0  0  0  0  0  0  0  0
    7.2452   -0.9510    0.0000 F   0  0  0  0  0  0  0  0  0  0  0  0
    7.7942   -3.0000    0.0000 C   0  0  0  0  0  0  0  0  0  0  0  0
    8.5442   -1.7010    0.0000 F   0  0  0  0  0  0  0  0  0  0  0  0
    7.0442   -4.2990    0.0000 F   0  0  0  0  0  0  0  0  0  0  0  0
    9.0933   -3.7500    0.0000 C   0  0  0  0  0  0  0  0  0  0  0  0
    8.3433   -5.0490    0.0000 F   0  0  0  0  0  0  0  0  0  0  0  0
    9.8433   -2.4510    0.0000 F   0  0  0  0  0  0  0  0  0  0  0  0
   10.3923   -4.5000    0.0000 C   0  0  0  0  0  0  0  0  0  0  0  0
   11.1423   -3.2010    0.0000 F   0  0  0  0  0  0  0  0  0  0  0  0
    9.6423   -5.7990    0.0000 F   0  0  0  0  0  0  0  0  0  0  0  0
   11.6913   -5.2500    0.0000 C   0  0  0  0  0  0  0  0  0  0  0  0
   10.9413   -6.5490    0.0000 F   0  0  0  0  0  0  0  0  0  0  0  0
   12.4413   -3.9510    0.0000 F   0  0  0  0  0  0  0  0  0  0  0  0
   12.9904   -6.0000    0.0000 C   0  0  0  0  0  0  0  0  0  0  0  0
   13.7404   -4.7010    0.0000 F   0  0  0  0  0  0  0  0  0  0  0  0
   12.2404   -7.2990    0.0000 F   0  0  0  0  0  0  0  0  0  0  0  0
   14.2894   -6.7500    0.0000 C   0  0  0  0  0  0  0  0  0  0  0  0
   15.5885   -7.5000    0.0000 F   0  0  0  0  0  0  0  0  0  0  0  0
   13.5394   -8.0490    0.0000 F   0  0  0  0  0  0  0  0  0  0  0  0
   15.0394   -5.4510    0.0000 F   0  0  0  0  0  0  0  0  0  0  0  0
  1  2  2  0
  2  3  1  0
  2  4  1  0
  2  5  1  0
  5  6  1  0
  6  7  1  0
  7  8  1  0
  7  9  1  0
  7 10  1  0
 10 11  1  0
 10 12  1  0
 10 13  1  0
 13 14  1  0
 13 15  1  0
 13 16  1  0
 16 17  1  0
 16 18  1  0
 16 19  1  0
 19 20  1  0
 19 21  1  0
 19 22  1  0
 22 23  1  0
 22 24  1  0
 22 25  1  0
 25 26  1  0
 25 27  1  0
 25 28  1  0
 28 29  1  0
 28 30  1  0
 28 31  1  0
 31 32  1  0
 31 33  1  0
 31 34  1  0
 34 35  1  0
 34 36  1  0
 34 37  1  0
M  END
$$$$

     RDKit          2D

 15 15  0  0  0  0  0  0  0  0999 V2000
    7.2760    0.0000    0.0000 F   0  0  0  0  0  0  0  0  0  0  0  0
    5.7760    0.0000    0.0000 C   0  0  0  0  0  0  0  0  0  0  0  0
    5.7760   -1.5000    0.0000 F   0  0  0  0  0  0  0  0  0  0  0  0
    5.7760    1.5000    0.0000 F   0  0  0  0  0  0  0  0  0  0  0  0
    4.2760    0.0000    0.0000 C   0  0  0  0  0  0  0  0  0  0  0  0
    4.2760    1.5000    0.0000 F   0  0  0  0  0  0  0  0  0  0  0  0
    4.2760   -1.5000    0.0000 F   0  0  0  0  0  0  0  0  0  0  0  0
    2.7760    0.0000    0.0000 C   0  0  0  0  0  0  0  0  0  0  0  0
    2.7760   -1.5000    0.0000 F   0  0  0  0  0  0  0  0  0  0  0  0
    2.7760    1.5000    0.0000 F   0  0  0  0  0  0  0  0  0  0  0  0
    1.2760    0.0000    0.0000 C   0  0  0  0  0  0  0  0  0  0  0  0
    0.3943    1.2135    0.0000 C   0  0  0  0  0  0  0  0  0  0  0  0
   -1.0323    0.7500    0.0000 C   0  0  0  0  0  0  0  0  0  0  0  0
   -1.0323   -0.7500    0.0000 N   0  0  0  0  0  0  0  0  0  0  0  0
    0.3943   -1.2135    0.0000 N   0  0  0  0  0  0  0  0  0  0  0  0
  1  2  1  0
  2  3  1  0
  2  4  1  0
  2  5  1  0
  5  6  1  0
  5  7  1  0
  5  8  1  0
  8  9  1  0
  8 10  1  0
  8 11  1  0
 11 12  1  0
 12 13  2  0
 13 14  1  0
 14 15  1  0
 15 11  2  0
M  END
$$$$

     RDKit          2D

 21 20  0  0  0  0  0  0  0  0999 V2000
    0.0000    0.0000    0.0000 C   0  0  0  0  0  0  0  0  0  0  0  0
    1.2990    0.7500    0.0000 C   0  0  0  0  0  0  0  0  0  0  0  0
    2.5981   -0.0000    0.0000 O   0  0  0  0  0  0  0  0  0  0  0  0
    3.8971    0.7500    0.0000 C   0  0  0  0  0  0  0  0  0  0  0  0
    3.8971    2.2500    0.0000 O   0  0  0  0  0  0  0  0  0  0  0  0
    5.1962   -0.0000    0.0000 C   0  0  0  0  0  0  0  0  0  0  0  0
    6.4952    0.7500    0.0000 C   0  0  0  0  0  0  0  0  0  0  0  0
    6.4952    2.2500    0.0000 O   0  0  0  0  0  0  0  0  0  0  0  0
    7.7942   -0.0000    0.0000 C   0  0  0  0  0  0  0  0  0  0  0  0
    8.5442    1.2990    0.0000 F   0  0  0  0  0  0  0  0  0  0  0  0
    7.0442   -1.2990    0.0000 F   0  0  0  0  0  0  0  0  0  0  0  0
    9.0933   -0.7500    0.0000 C   0  0  0  0  0  0  0  0  0  0  0  0
    8.3433   -2.0490    0.0000 F   0  0  0  0  0  0  0  0  0  0  0  0
    9.8433    0.5490    0.0000 F   0  0  0  0  0  0  0  0  0  0  0  0
   10.3923   -1.5000    0.0000 C   0  0  0  0  0  0  0  0  0  0  0  0
   11.1423   -0.2010    0.0000 F   0  0  0  0  0  0  0  0  0  0  0  0
    9.6423   -2.7990    0.0000 F   0  0  0  0  0  0  0  0  0  0  0  0
   11.6913   -2.2500    0.0000 C   0  0  0  0  0  0  0  0  0  0  0  0
   12.9904   -3.0000    0.0000 F   0  0  0  0  0  0  0  0  0  0  0  0
   10.9413   -3.5490    0.0000 F   0  0  0  0  0  0  0  0  0  0  0  0
   12.4413   -0.9510    0.0000 F   0  0  0  0  0  0  0  0  0  0  0  0
  1  2  1  0
  2  3  1  0
  3  4  1  0
  4  5  2  0
  4  6  1  0
  6  7  1  0
  7  8  2  0
  7  9  1  0
  9 10  1  0
  9 11  1  0
  9 12  1  0
 12 13  1  0
 12 14  1  0
 12 15  1  0
 15 16  1  0
 15 17  1  0
 15 18  1  0
 18 19  1  0
 18 20  1  0
 18 21  1  0
M  END
$$$$

     RDKit          2D

 17 16  0  0  0  0  0  0  0  0999 V2000
    0.0000    0.0000    0.0000 C   0  0  0  0  0  0  0  0  0  0  0  0
    1.2990    0.7500    0.0000 C   0  0  0  0  0  0  0  0  0  0  0  0
    2.5981   -0.0000    0.0000 C   0  0  0  0  0  0  0  0  0  0  0  0
    3.8971    0.7500    0.0000 C   0  0  0  0  0  0  0  0  0  0  0  0
    5.1962   -0.0000    0.0000 N   0  0  0  0  0  0  0  0  0  0  0  0
    6.4952    0.7500    0.0000 C   0  0  0  0  0  0  0  0  0  0  0  0
    6.4952    2.2500    0.0000 O   0  0  0  0  0  0  0  0  0  0  0  0
    7.7942   -0.0000    0.0000 C   0  0  0  0  0  0  0  0  0  0  0  0
    8.5442    1.2990    0.0000 F   0  0  0  0  0  0  0  0  0  0  0  0
    7.0442   -1.2990    0.0000 F   0  0  0  0  0  0  0  0  0  0  0  0
    9.0933   -0.7500    0.0000 C   0  0  0  0  0  0  0  0  0  0  0  0
    8.3433   -2.0490    0.0000 F   0  0  0  0  0  0  0  0  0  0  0  0
    9.8433    0.5490    0.0000 F   0  0  0  0  0  0  0  0  0  0  0  0
   10.3923   -1.5000    0.0000 C   0  0  0  0  0  0  0  0  0  0  0  0
   11.6913   -2.2500    0.0000 F   0  0  0  0  0  0  0  0  0  0  0  0
   11.1423   -0.2010    0.0000 F   0  0  0  0  0  0  0  0  0  0  0  0
    9.6423   -2.7990    0.0000 F   0  0  0  0  0  0  0  0  0  0  0  0
  1  2  1  0
  2  3  1  0
  3  4  1  0
  4  5  1  0
  5  6  1  0
  6  7  2  0
  6  8  1  0
  8  9  1  0
  8 10  1  0
  8 11  1  0
 11 12  1  0
 11 13  1  0
 11 14  1  0
 14 15  1  0
 14 16  1  0
 14 17  1  0
M  END
$$$$

     RDKit          2D

 27 26  0  0  0  0  0  0  0  0999 V2000
    0.0000    0.0000    0.0000 C   0  0  0  0  0  0  0  0  0  0  0  0
    1.2990    0.7500    0.0000 C   0  0  0  0  0  0  0  0  0  0  0  0
    2.5981   -0.0000    0.0000 C   0  0  0  0  0  0  0  0  0  0  0  0
    2.5981   -1.5000    0.0000 O   0  0  0  0  0  0  0  0  0  0  0  0
    3.8971    0.7500    0.0000 O   0  0  0  0  0  0  0  0  0  0  0  0
    5.1962   -0.0000    0.0000 C   0  0  0  0  0  0  0  0  0  0  0  0
    6.4952    0.7500    0.0000 C   0  0  0  0  0  0  0  0  0  0  0  0
    7.7942   -0.0000    0.0000 C   0  0  0  0  0  0  0  0  0  0  0  0
    9.0933    0.7500    0.0000 C   0  0  0  0  0  0  0  0  0  0  0  0
    9.8433   -0.5490    0.0000 F   0  0  0  0  0  0  0  0  0  0  0  0
    8.3433    2.0490    0.0000 F   0  0  0  0  0  0  0  0  0  0  0  0
   10.3923    1.5000    0.0000 C   0  0  0  0  0  0  0  0  0  0  0  0
    9.6423    2.7990    0.0000 F   0  0  0  0  0  0  0  0  0  0  0  0
   11.1423    0.2010    0.0000 F   0  0  0  0  0  0  0  0  0  0  0  0
   11.6913    2.2500    0.0000 C   0  0  0  0  0  0  0  0  0  0  0  0
   12.4413    0.9510    0.0000 F   0  0  0  0  0  0  0  0  0  0  0  0
   10.9413    3.5490    0.0000 F   0  0  0  0  0  0  0  0  0  0  0  0
   12.9904    3.0000    0.0000 C   0  0  0  0  0  0  0  0  0  0  0  0
   12.2404    4.2990    0.0000 F   0  0  0  0  0  0  0  0  0  0  0  0
   13.7404    1.7010    0.0000 F   0  0  0  0  0  0  0  0  0  0  0  0
   14.2894    3.7500    0.0000 C   0  0  0  0  0  0  0  0  0  0  0  0
   15.0394    2.4510    0.0000 F   0  0  0  0  0  0  0  0  0  0  0  0
   13.5394    5.0490    0.0000 F   0  0  0  0  0  0  0  0  0  0  0  0
   15.5885    4.5000    0.0000 C   0  0  0  0  0  0  0  0  0  0  0  0
   16.8875    5.2500    0.0000 F   0  0  0  0  0  0  0  0  0  0  0  0
   14.8385    5.7990    0.0000 F   0  0  0  0  0  0  0  0  0  0  0  0
   16.3385    3.2010    0.0000 F   0  0  0  0  0  0  0  0  0  0  0  0
  1  2  2  0
  2  3  1  0
  3  4  2  0
  3  5  1  0
  5  6  1  0
  6  7  1  0
  7  8  1  0
  8  9  1  0
  9 10  1  0
  9 11  1  0
  9 12  1  0
 12 13  1  0
 12 14  1  0
 12 15  1  0
 15 16  1  0
 15 17  1  0
 15 18  1  0
 18 19  1  0
 18 20  1  0
 18 21  1  0
 21 22  1  0
 21 23  1  0
 21 24  1  0
 24 25  1  0
 24 26  1  0
 24 27  1  0
M  END
$$$$

     RDKit          2D

 26 26  0  0  0  0  0  0  0  0999 V2000
    3.0000    0.0000    0.0000 N   0  0  0  0  0  0  0  0  0  0  0  0
    1.5000    0.0000    0.0000 C   0  0  0  0  0  0  0  0  0  0  0  0
    0.7500   -1.2990    0.0000 C   0  0  0  0  0  0  0  0  0  0  0  0
   -0.7500   -1.2990    0.0000 C   0  0  0  0  0  0  0  0  0  0  0  0
   -1.5000    0.0000    0.0000 C   0  0  0  0  0  0  0  0  0  0  0  0
   -0.7500    1.2990    0.0000 C   0  0  0  0  0  0  0  0  0  0  0  0
   -1.5000    2.5981    0.0000 C   0  0  0  0  0  0  0  0  0  0  0  0
   -0.2010    3.3481    0.0000 F   0  0  0  0  0  0  0  0  0  0  0  0
   -2.7990    1.8481    0.0000 F   0  0  0  0  0  0  0  0  0  0  0  0
   -2.2500    3.8971    0.0000 C   0  0  0  0  0  0  0  0  0  0  0  0
   -3.5490    3.1471    0.0000 F   0  0  0  0  0  0  0  0  0  0  0  0
   -0.9510    4.6471    0.0000 F   0  0  0  0  0  0  0  0  0  0  0  0
   -3.0000    5.1962    0.0000 C   0  0  0  0  0  0  0  0  0  0  0  0
   -1.7010    5.9462    0.0000 F   0  0  0  0  0  0  0  0  0  0  0  0
   -4.2990    4.4462    0.0000 F   0  0  0  0  0  0  0  0  0  0  0  0
   -3.7500    6.4952    0.0000 C   0  0  0  0  0  0  0  0  0  0  0  0
   -5.0490    5.7452    0.0000 F   0  0  0  0  0  0  0  0  0  0  0  0
   -2.4510    7.2452    0.0000 F   0  0  0  0  0  0  0  0  0  0  0  0
   -4.5000    7.7942    0.0000 C   0  0  0  0  0  0  0  0  0  0  0  0
   -3.2010    8.5442    0.0000 F   0  0  0  0  0  0  0  0  0  0  0  0
   -5.7990    7.0442    0.0000 F   0  0  0  0  0  0  0  0  0  0  0  0
   -5.2500    9.0933    0.0000 C   0  0  0  0  0  0  0  0  0  0  0  0
   -6.0000   10.3923    0.0000 F   0  0  0  0  0  0  0  0  0  0  0  0
   -6.5490    8.3433    0.0000 F   0  0  0  0  0  0  0  0  0  0  0  0
   -3.9510    9.8433    0.0000 F   0  0  0  0  0  0  0  0  0  0  0  0
    0.7500    1.2990    0.0000 C   0  0  0  0  0  0  0  0  0  0  0  0
  1  2  1  0
  2  3  2  0
  3  4  1  0
  4  5  2  0
  5  6  1  0
  6  7  1  0
  7  8  1  0
  7  9  1  0
  7 10  1  0
 10 11  1  0
 10 12  1  0
 10 13  1  0
 13 14  1  0
 13 15  1  0
 13 16  1  0
 16 17  1  0
 16 18  1  0
 16 19  1  0
 19 20  1  0
 19 21  1  0
 19 22  1  0
 22 23  1  0
 22 24  1  0
 22 25  1  0
  6 26  2  0
 26  2  1  0
M  END
$$$$

     RDKit          2D

 55 54  0  0  0  0  0  0  0  0999 V2000
   11.6913    6.7500    0.0000 F   0  0  0  0  0  0  0  0  0  0  0  0
   10.3923    6.0000    0.0000 C   0  0  0  0  0  0  0  0  0  0  0  0
    9.6423    7.2990    0.0000 F   0  0  0  0  0  0  0  0  0  0  0  0
   11.1423    4.7010    0.0000 F   0  0  0  0  0  0  0  0  0  0  0  0
    9.0933    5.2500    0.0000 C   0  0  0  0  0  0  0  0  0  0  0  0
    9.8433    3.9510    0.0000 F   0  0  0  0  0  0  0  0  0  0  0  0
    8.3433    6.5490    0.0000 F   0  0  0  0  0  0  0  0  0  0  0  0
    7.7942    4.5000    0.0000 C   0  0  0  0  0  0  0  0  0  0  0  0
    7.0442    5.7990    0.0000 F   0  0  0  0  0  0  0  0  0  0  0  0
    8.5442    3.2010    0.0000 F   0  0  0  0  0  0  0  0  0  0  0  0
    6.4952    3.7500    0.0000 C   0  0  0  0  0  0  0  0  0  0  0  0
    7.2452    2.4510    0.0000 F   0  0  0  0  0  0  0  0  0  0  0  0
    5.7452    5.0490    0.0000 F   0  0  0  0  0  0  0  0  0  0  0  0
    5.1962    3.0000    0.0000 C   0  0  0  0  0  0  0  0  0  0  0  0
    4.4462    4.2990    0.0000 F   0  0  0  0  0  0  0  0  0  0  0  0
    5.9462    1.7010    0.0000 F   0  0  0  0  0  0  0  0  0  0  0  0
    3.8971    2.2500    0.0000 C   0  0  0  0  0  0  0  0  0  0  0  0
    4.6471    0.9510    0.0000 F   0  0  0  0  0  0  0  0  0  0  0  0
    3.1471    3.5490    0.0000 F   0  0  0  0  0  0  0  0  0  0  0  0
    2.5981    1.5000    0.0000 C   0  0  0  0  0  0  0  0  0  0  0  0
    1.8481    2.7990    0.0000 F   0  0  0  0  0  0  0  0  0  0  0  0
    3.3481    0.2010    0.0000 F   0  0  0  0  0  0  0  0  0  0  0  0
    1.2990    0.7500    0.0000 C   0  0  0  0  0  0  0  0  0  0  0  0
    2.0490   -0.5490    0.0000 F   0  0  0  0  0  0  0  0  0  0  0  0
    0.5490    2.0490    0.0000 F   0  0  0  0  0  0  0  0  0  0  0  0
    0.0000    0.0000    0.0000 C   0  0  0  0  0  0  0  0  0  0  0  0
   -1.2990    0.7500    0.0000 C   0  0  0  0  0  0  0  0  0  0  0  0
   -2.5981    0.0000    0.0000 S   0  0  0  0  0  0  0  0  0  0  0  0
   -3.8971    0.7500    0.0000 C   0  0  0  0  0  0  0  0  0  0  0  0
   -5.1962    0.0000    0.0000 C   0  0  0  0  0  0  0  0  0  0  0  0
   -6.4952    0.7500    0.0000 C   0  0  0  0  0  0  0  0  0  0  0  0
   -7.2452   -0.5490    0.0000 F   0  0  0  0  0  0  0  0  0  0  0  0
   -5.7452    2.0490    0.0000 F   0  0  0  0  0  0  0  0  0  0  0  0
   -7.7942    1.5000    0.0000 C   0  0  0  0  0  0  0  0  0  0  0  0
   -7.0442    2.7990    0.0000 F   0  0  0  0  0  0  0  0  0  0  0  0
   -8.5442    0.2010    0.0000 F   0  0  0  0  0  0  0  0  0  0  0  0
   -9.0933    2.2500    0.0000 C   0  0  0  0  0  0  0  0  0  0  0  0
   -9.8433    0.9510    0.0000 F   0  0  0  0  0  0  0  0  0  0  0  0
   -8.3433    3.5490    0.0000 F   0  0  0  0  0  0  0  0  0  0  0  0
  -10.3923    3.0000    0.0000 C   0  0  0  0  0  0  0  0  0  0  0  0
   -9.6423    4.2990    0.0000 F   0  0  0  0  0  0  0  0  0  0  0  0
  -11.1423    1.7010    0.0000 F   0  0  0  0  0  0  0  0  0  0  0  0
  -11.6913    3.7500    0.0000 C   0  0  0  0  0  0  0  0  0  0  0  0
  -12.4413    2.4510    0.0000 F   0  0  0  0  0  0  0  0  0  0  0  0
  -10.9413    5.0490    0.0000 F   0  0  0  0  0  0  0  0  0  0  0  0
  -12.9904    4.5000    0.0000 C   0  0  0  0  0  0  0  0  0  0  0  0
  -12.2404    5.7990    0.0000 F   0  0  0  0  0  0  0  0  0  0  0  0
  -13.7404    3.2010    0.0000 F   0  0  0  0  0  0  0  0  0  0  0  0
  -14.2894    5.2500    0.0000 C   0  0  0  0  0  0  0  0  0  0  0  0
  -15.0394    3.9510    0.0000 F   0  0  0  0  0  0  0  0  0  0  0  0
  -13.5394    6.5490    0.0000 F   0  0  0  0  0  0  0  0  0  0  0  0
  -15.5885    6.0000    0.0000 C   0  0  0  0  0  0  0  0  0  0  0  0
  -16.8875    6.7500    0.0000 F   0  0  0  0  0  0  0  0  0  0  0  0
  -14.8385    7.2990    0.0000 F   0  0  0  0  0  0  0  0  0  0  0  0
  -16.3385    4.7010    0.0000 F   0  0  0  0  0  0  0  0  0  0  0  0
  1  2  1  0
  2  3  1  0
  2  4  1  0
  2  5  1  0
  5  6  1  0
  5  7  1  0
  5  8  1  0
  8  9  1  0
  8 10  1  0
  8 11  1  0
 11 12  1  0
 11 13  1  0
 11 14  1  0
 14 15  1  0
 14 16  1  0
 14 17  1  0
 17 18  1  0
 17 19  1  0
 17 20  1  0
 20 21  1  0
 20 22  1  0
 20 23  1  0
 23 24  1  0
 23 25  1  0
 23 26  1  0
 26 27  1  0
 27 28  1  0
 28 29  1  0
 29 30  1  0
 30 31  1  0
 31 32  1  0
 31 33  1  0
 31 34  1  0
 34 35  1  0
 34 36  1  0
 34 37  1  0
 37 38  1  0
 37 39  1  0
 37 40  1  0
 40 41  1  0
 40 42  1  0
 40 43  1  0
 43 44  1  0
 43 45  1  0
 43 46  1  0
 46 47  1  0
 46 48  1  0
 46 49  1  0
 49 50  1  0
 49 51  1  0
 49 52  1  0
 52 53  1  0
 52 54  1  0
 52 55  1  0
M  END
$$$$

     RDKit          2D

 26 25  0  0  0  0  0  0  0  0999 V2000
   -1.2990    0.7500    0.0000 N   0  0  0  0  0  0  0  0  0  0  0  0
    0.0000    0.0000    0.0000 C   0  0  0  0  0  0  0  0  0  0  0  0
   -0.0000   -1.5000    0.0000 N   0  0  0  0  0  0  0  0  0  0  0  0
   -1.2990   -2.2500    0.0000 O   0  0  0  0  0  0  0  0  0  0  0  0
    1.2990    0.7500    0.0000 C   0  0  0  0  0  0  0  0  0  0  0  0
    2.0490   -0.5490    0.0000 F   0  0  0  0  0  0  0  0  0  0  0  0
    0.5490    2.0490    0.0000 F   0  0  0  0  0  0  0  0  0  0  0  0
    2.5981    1.5000    0.0000 C   0  0  0  0  0  0  0  0  0  0  0  0
    1.8481    2.7990    0.0000 F   0  0  0  0  0  0  0  0  0  0  0  0
    3.3481    0.2010    0.0000 F   0  0  0  0  0  0  0  0  0  0  0  0
    3.8971    2.2500    0.0000 C   0  0  0  0  0  0  0  0  0  0  0  0
    4.6471    0.9510    0.0000 F   0  0  0  0  0  0  0  0  0  0  0  0
    3.1471    3.5490    0.0000 F   0  0  0  0  0  0  0  0  0  0  0  0
    5.1962    3.0000    0.0000 C   0  0  0  0  0  0  0  0  0  0  0  0
    4.4462    4.2990    0.0000 F   0  0  0  0  0  0  0  0  0  0  0  0
    5.9462    1.7010    0.0000 F   0  0  0  0  0  0  0  0  0  0  0  0
    6.4952    3.7500    0.0000 C   0  0  0  0  0  0  0  0  0  0  0  0
    7.2452    2.4510    0.0000 F   0  0  0  0  0  0  0  0  0  0  0  0
    5.7452    5.0490    0.0000 F   0  0  0  0  0  0  0  0  0  0  0  0
    7.7942    4.5000    0.0000 C   0  0  0  0  0  0  0  0  0  0  0  0
    7.0442    5.7990    0.0000 F   0  0  0  0  0  0  0  0  0  0  0  0
    8.5442    3.2010    0.0000 F   0  0  0  0  0  0  0  0  0  0  0  0
    9.0933    5.2500    0.0000 C   0  0  0  0  0  0  0  0  0  0  0  0
   10.3923    6.0000    0.0000 F   0  0  0  0  0  0  0  0  0  0  0  0
    9.8433    3.9510    0.0000 F   0  0  0  0  0  0  0  0  0  0  0  0
    8.3433    6.5490    0.0000 F   0  0  0  0  0  0  0  0  0  0  0  0
  1  2  2  0
  2  3  1  0
  3  4  1  0
  2  5  1  0
  5  6  1  0
  5  7  1  0
  5  8  1  0
  8  9  1  0
  8 10  1  0
  8 11  1  0
 11 12  1  0
 11 13  1  0
 11 14  1  0
 14 15  1  0
 14 16  1  0
 14 17  1  0
 17 18  1  0
 17 19  1  0
 17 20  1  0
 20 21  1  0
 20 22  1  0
 20 23  1  0
 23 24  1  0
 23 25  1  0
 23 26  1  0
M  END
$$$$

     RDKit          2D

 33 32  0  0  0  0  0  0  0  0999 V2000
    0.0000    0.0000    0.0000 C   0  0  0  0  0  0  0  0  0  0  0  0
    1.2990    0.7500    0.0000 C   0  0  0  0  0  0  0  0  0  0  0  0
    2.5981   -0.0000    0.0000 C   0  0  0  0  0  0  0  0  0  0  0  0
    2.5981   -1.5000    0.0000 O   0  0  0  0  0  0  0  0  0  0  0  0
    3.8971    0.7500    0.0000 O   0  0  0  0  0  0  0  0  0  0  0  0
    5.1962   -0.0000    0.0000 C   0  0  0  0  0  0  0  0  0  0  0  0
    6.4952    0.7500    0.0000 C   0  0  0  0  0  0  0  0  0  0  0  0
    7.7942   -0.0000    0.0000 C   0  0  0  0  0  0  0  0  0  0  0  0
    9.0933    0.7500    0.0000 C   0  0  0  0  0  0  0  0  0  0  0  0
    9.8433   -0.5490    0.0000 F   0  0  0  0  0  0  0  0  0  0  0  0
    8.3433    2.0490    0.0000 F   0  0  0  0  0  0  0  0  0  0  0  0
   10.3923    1.5000    0.0000 C   0  0  0  0  0  0  0  0  0  0  0  0
    9.6423    2.7990    0.0000 F   0  0  0  0  0  0  0  0  0  0  0  0
   11.1423    0.2010    0.0000 F   0  0  0  0  0  0  0  0  0  0  0  0
   11.6913    2.2500    0.0000 C   0  0  0  0  0  0  0  0  0  0  0  0
   12.4413    0.9510    0.0000 F   0  0  0  0  0  0  0  0  0  0  0  0
   10.9413    3.5490    0.0000 F   0  0  0  0  0  0  0  0  0  0  0  0
   12.9904    3.0000    0.0000 C   0  0  0  0  0  0  0  0  0  0  0  0
   12.2404    4.2990    0.0000 F   0  0  0  0  0  0  0  0  0  0  0  0
   13.7404    1.7010    0.0000 F   0  0  0  0  0  0  0  0  0  0  0  0
   14.2894    3.7500    0.0000 C   0  0  0  0  0  0  0  0  0  0  0  0
   15.0394    2.4510    0.0000 F   0  0  0  0  0  0  0  0  0  0  0  0
   13.5394    5.0490    0.0000 F   0  0  0  0  0  0  0  0  0  0  0  0
   15.5885    4.5000    0.0000 C   0  0  0  0  0  0  0  0  0  0  0  0
   14.8385    5.7990    0.0000 F   0  0  0  0  0  0  0  0  0  0  0  0
   16.3385    3.2010    0.0000 F   0  0  0  0  0  0  0  0  0  0  0  0
   16.8875    5.2500    0.0000 C   0  0  0  0  0  0  0  0  0  0  0  0
   17.6375    3.9510    0.0000 F   0  0  0  0  0  0  0  0  0  0  0  0
   16.1375    6.5490    0.0000 F   0  0  0  0  0  0  0  0  0  0  0  0
   18.1865    6.0000    0.0000 C   0  0  0  0  0  0  0  0  0  0  0  0
   19.4856    6.7500    0.0000 F   0  0  0  0  0  0  0  0  0  0  0  0
   17.4365    7.2990    0.0000 F   0  0  0  0  0  0  0  0  0  0  0  0
   18.9365    4.7010    0.0000 F   0  0  0  0  0  0  0  0  0  0  0  0
  1  2  2  0
  2  3  1  0
  3  4  2  0
  3  5  1  0
  5  6  1  0
  6  7  1  0
  7  8  1  0
  8  9  1  0
  9 10  1  0
  9 11  1  0
  9 12  1  0
 12 13  1  0
 12 14  1  0
 12 15  1  0
 15 16  1  0
 15 17  1  0
 15 18  1  0
 18 19  1  0
 18 20  1  0
 18 21  1  0
 21 22  1  0
 21 23  1  0
 21 24  1  0
 24 25  1  0
 24 26  1  0
 24 27  1  0
 27 28  1  0
 27 29  1  0
 27 30  1  0
 30 31  1  0
 30 32  1  0
 30 33  1  0
M  END
$$$$

     RDKit          2D

 31 30  0  0  0  0  0  0  0  0999 V2000
    0.0000    0.0000    0.0000 C   0  0  0  0  0  0  0  0  0  0  0  0
    1.2990    0.7500    0.0000 C   0  0  0  0  0  0  0  0  0  0  0  0
    2.5981   -0.0000    0.0000 C   0  0  0  0  0  0  0  0  0  0  0  0
    3.8971    0.7500    0.0000 O   0  0  0  0  0  0  0  0  0  0  0  0
    5.1962   -0.0000    0.0000 C   0  0  0  0  0  0  0  0  0  0  0  0
    5.1962   -1.5000    0.0000 O   0  0  0  0  0  0  0  0  0  0  0  0
    6.4952    0.7500    0.0000 C   0  0  0  0  0  0  0  0  0  0  0  0
    7.2452   -0.5490    0.0000 F   0  0  0  0  0  0  0  0  0  0  0  0
    5.7452    2.0490    0.0000 F   0  0  0  0  0  0  0  0  0  0  0  0
    7.7942    1.5000    0.0000 C   0  0  0  0  0  0  0  0  0  0  0  0
    7.0442    2.7990    0.0000 F   0  0  0  0  0  0  0  0  0  0  0  0
    8.5442    0.2010    0.0000 F   0  0  0  0  0  0  0  0  0  0  0  0
    9.0933    2.2500    0.0000 C   0  0  0  0  0  0  0  0  0  0  0  0
    9.8433    0.9510    0.0000 F   0  0  0  0  0  0  0  0  0  0  0  0
    8.3433    3.5490    0.0000 F   0  0  0  0  0  0  0  0  0  0  0  0
   10.3923    3.0000    0.0000 C   0  0  0  0  0  0  0  0  0  0  0  0
    9.6423    4.2990    0.0000 F   0  0  0  0  0  0  0  0  0  0  0  0
   11.1423    1.7010    0.0000 F   0  0  0  0  0  0  0  0  0  0  0  0
   11.6913    3.7500    0.0000 C   0  0  0  0  0  0  0  0  0  0  0  0
   12.4413    2.4510    0.0000 F   0  0  0  0  0  0  0  0  0  0  0  0
   10.9413    5.0490    0.0000 F   0  0  0  0  0  0  0  0  0  0  0  0
   12.9904    4.5000    0.0000 C   0  0  0  0  0  0  0  0  0  0  0  0
   12.2404    5.7990    0.0000 F   0  0  0  0  0  0  0  0  0  0  0  0
   13.7404    3.2010    0.0000 F   0  0  0  0  0  0  0  0  0  0  0  0
   14.2894    5.2500    0.0000 C   0  0  0  0  0  0  0  0  0  0  0  0
   15.0394    3.9510    0.0000 F   0  0  0  0  0  0  0  0  0  0  0  0
   13.5394    6.5490    0.0000 F   0  0  0  0  0  0  0  0  0  0  0  0
   15.5885    6.0000    0.0000 C   0  0  0  0  0  0  0  0  0  0  0  0
   16.8875    6.7500    0.0000 F   0  0  0  0  0  0  0  0  0  0  0  0
   14.8385    7.2990    0.0000 F   0  0  0  0  0  0  0  0  0  0  0  0
   16.3385    4.7010    0.0000 F   0  0  0  0  0  0  0  0  0  0  0  0
  1  2  1  0
  2  3  1  0
  3  4  1  0
  4  5  1  0
  5  6  2  0
  5  7  1  0
  7  8  1  0
  7  9  1  0
  7 10  1  0
 10 11  1  0
 10 12  1  0
 10 13  1  0
 13 14  1  0
 13 15  1  0
 13 16  1  0
 16 17  1  0
 16 18  1  0
 16 19  1  0
 19 20  1  0
 19 21  1  0
 19 22  1  0
 22 23  1  0
 22 24  1  0
 22 25  1  0
 25 26  1  0
 25 27  1  0
 25 28  1  0
 28 29  1  0
 28 30  1  0
 28 31  1  0
M  END
$$$$

     RDKit          2D

 27 26  0  0  0  0  0  0  0  0999 V2000
   -1.8481   -1.2990    0.0000 O   0  0  0  0  0  0  0  0  0  0  0  0
   -2.5981    0.0000    0.0000 S   0  0  0  0  0  0  0  0  0  0  0  0
   -2.9095    0.7338    0.0000 O   0  0  0  0  0  0  0  0  0  0  0  0
   -1.2990    0.7500    0.0000 O   0  0  0  0  0  0  0  0  0  0  0  0
    0.0000    0.0000    0.0000 C   0  0  0  0  0  0  0  0  0  0  0  0
    1.2990    0.7500    0.0000 C   0  0  0  0  0  0  0  0  0  0  0  0
    2.0490   -0.5490    0.0000 F   0  0  0  0  0  0  0  0  0  0  0  0
    0.5490    2.0490    0.0000 F   0  0  0  0  0  0  0  0  0  0  0  0
    2.5981    1.5000    0.0000 C   0  0  0  0  0  0  0  0  0  0  0  0
    3.8971    0.7500    0.0000 F   0  0  0  0  0  0  0  0  0  0  0  0
    2.5981    3.0000    0.0000 C   0  0  0  0  0  0  0  0  0  0  0  0
    2.5981    4.5000    0.0000 F   0  0  0  0  0  0  0  0  0  0  0  0
    4.0981    3.0000    0.0000 F   0  0  0  0  0  0  0  0  0  0  0  0
    1.0981    3.0000    0.0000 F   0  0  0  0  0  0  0  0  0  0  0  0
   -3.8971   -0.7500    0.0000 C   0  0  0  0  0  0  0  0  0  0  0  0
   -3.1471   -2.0490    0.0000 F   0  0  0  0  0  0  0  0  0  0  0  0
   -5.1962   -1.5000    0.0000 F   0  0  0  0  0  0  0  0  0  0  0  0
   -4.6471    0.5490    0.0000 C   0  0  0  0  0  0  0  0  0  0  0  0
   -5.9462   -0.2010    0.0000 F   0  0  0  0  0  0  0  0  0  0  0  0
   -3.9397    1.0821    0.0000 F   0  0  0  0  0  0  0  0  0  0  0  0
   -5.3971    1.8481    0.0000 C   0  0  0  0  0  0  0  0  0  0  0  0
   -4.0981    2.5981    0.0000 F   0  0  0  0  0  0  0  0  0  0  0  0
   -6.6962    1.0981    0.0000 F   0  0  0  0  0  0  0  0  0  0  0  0
   -6.1471    3.1471    0.0000 C   0  0  0  0  0  0  0  0  0  0  0  0
   -6.8971    4.4462    0.0000 F   0  0  0  0  0  0  0  0  0  0  0  0
   -7.4462    2.3971    0.0000 F   0  0  0  0  0  0  0  0  0  0  0  0
   -4.8481    3.8971    0.0000 F   0  0  0  0  0  0  0  0  0  0  0  0
  1  2  2  0
  2  3  2  0
  2  4  1  0
  4  5  1  0
  5  6  1  0
  6  7  1  0
  6  8  1  0
  6  9  1  0
  9 10  1  0
  9 11  1  0
 11 12  1  0
 11 13  1  0
 11 14  1  0
  2 15  1  0
 15 16  1  0
 15 17  1  0
 15 18  1  0
 18 19  1  0
 18 20  1  0
 18 21  1  0
 21 22  1  0
 21 23  1  0
 21 24  1  0
 24 25  1  0
 24 26  1  0
 24 27  1  0
M  END
$$$$

     RDKit          2D

 30 29  0  0  0  0  0  0  0  0999 V2000
    0.0000    0.0000    0.0000 C   0  0  0  0  0  0  0  0  0  0  0  0
    1.2990    0.7500    0.0000 C   0  0  0  0  0  0  0  0  0  0  0  0
    2.5981   -0.0000    0.0000 O   0  0  0  0  0  0  0  0  0  0  0  0
    3.8971    0.7500    0.0000 C   0  0  0  0  0  0  0  0  0  0  0  0
    3.8971    2.2500    0.0000 O   0  0  0  0  0  0  0  0  0  0  0  0
    5.1962   -0.0000    0.0000 C   0  0  0  0  0  0  0  0  0  0  0  0
    5.9462    1.2990    0.0000 F   0  0  0  0  0  0  0  0  0  0  0  0
    4.4462   -1.2990    0.0000 F   0  0  0  0  0  0  0  0  0  0  0  0
    6.4952   -0.7500    0.0000 C   0  0  0  0  0  0  0  0  0  0  0  0
    5.7452   -2.0490    0.0000 F   0  0  0  0  0  0  0  0  0  0  0  0
    7.2452    0.5490    0.0000 F   0  0  0  0  0  0  0  0  0  0  0  0
    7.7942   -1.5000    0.0000 C   0  0  0  0  0  0  0  0  0  0  0  0
    8.5442   -0.2010    0.0000 F   0  0  0  0  0  0  0  0  0  0  0  0
    7.0442   -2.7990    0.0000 F   0  0  0  0  0  0  0  0  0  0  0  0
    9.0933   -2.2500    0.0000 C   0  0  0  0  0  0  0  0  0  0  0  0
    8.3433   -3.5490    0.0000 F   0  0  0  0  0  0  0  0  0  0  0  0
    9.8433   -0.9510    0.0000 F   0  0  0  0  0  0  0  0  0  0  0  0
   10.3923   -3.0000    0.0000 C   0  0  0  0  0  0  0  0  0  0  0  0
   11.1423   -1.7010    0.0000 F   0  0  0  0  0  0  0  0  0  0  0  0
    9.6423   -4.2990    0.0000 F   0  0  0  0  0  0  0  0  0  0  0  0
   11.6913   -3.7500    0.0000 C   0  0  0  0  0  0  0  0  0  0  0  0
   10.9413   -5.0490    0.0000 F   0  0  0  0  0  0  0  0  0  0  0  0
   12.4413   -2.4510    0.0000 F   0  0  0  0  0  0  0  0  0  0  0  0
   12.9904   -4.5000    0.0000 C   0  0  0  0  0  0  0  0  0  0  0  0
   13.7404   -3.2010    0.0000 F   0  0  0  0  0  0  0  0  0  0  0  0
   12.2404   -5.7990    0.0000 F   0  0  0  0  0  0  0  0  0  0  0  0
   14.2894   -5.2500    0.0000 C   0  0  0  0  0  0  0  0  0  0  0  0
   15.5885   -6.0000    0.0000 F   0  0  0  0  0  0  0  0  0  0  0  0
   13.5394   -6.5490    0.0000 F   0  0  0  0  0  0  0  0  0  0  0  0
   15.0394   -3.9510    0.0000 F   0  0  0  0  0  0  0  0  0  0  0  0
  1  2  2  0
  2  3  1  0
  3  4  1  0
  4  5  2  0
  4  6  1  0
  6  7  1  0
  6  8  1  0
  6  9  1  0
  9 10  1  0
  9 11  1  0
  9 12  1  0
 12 13  1  0
 12 14  1  0
 12 15  1  0
 15 16  1  0
 15 17  1  0
 15 18  1  0
 18 19  1  0
 18 20  1  0
 18 21  1  0
 21 22  1  0
 21 23  1  0
 21 24  1  0
 24 25  1  0
 24 26  1  0
 24 27  1  0
 27 28  1  0
 27 29  1  0
 27 30  1  0
M  END
$$$$

     RDKit          2D

 23 23  0  0  0  0  0  0  0  0999 V2000
    4.5000    0.0000    0.0000 N   0  0  0  0  0  0  0  0  0  0  0  0
    3.0000    0.0000    0.0000 C   0  0  0  0  0  0  0  0  0  0  0  0
    1.5000    0.0000    0.0000 C   0  0  0  0  0  0  0  0  0  0  0  0
    0.7500   -1.2990    0.0000 C   0  0  0  0  0  0  0  0  0  0  0  0
   -0.7500   -1.2990    0.0000 C   0  0  0  0  0  0  0  0  0  0  0  0
   -1.5000    0.0000    0.0000 C   0  0  0  0  0  0  0  0  0  0  0  0
   -3.0000    0.0000    0.0000 C   0  0  0  0  0  0  0  0  0  0  0  0
   -3.0000    1.5000    0.0000 F   0  0  0  0  0  0  0  0  0  0  0  0
   -3.0000   -1.5000    0.0000 F   0  0  0  0  0  0  0  0  0  0  0  0
   -4.5000    0.0000    0.0000 C   0  0  0  0  0  0  0  0  0  0  0  0
   -4.5000   -1.5000    0.0000 F   0  0  0  0  0  0  0  0  0  0  0  0
   -4.5000    1.5000    0.0000 F   0  0  0  0  0  0  0  0  0  0  0  0
   -6.0000    0.0000    0.0000 C   0  0  0  0  0  0  0  0  0  0  0  0
   -6.0000    1.5000    0.0000 F   0  0  0  0  0  0  0  0  0  0  0  0
   -6.0000   -1.5000    0.0000 F   0  0  0  0  0  0  0  0  0  0  0  0
   -7.5000    0.0000    0.0000 C   0  0  0  0  0  0  0  0  0  0  0  0
   -9.0000    0.0000    0.0000 F   0  0  0  0  0  0  0  0  0  0  0  0
   -7.5000   -1.5000    0.0000 F   0  0  0  0  0  0  0  0  0  0  0  0
   -7.5000    1.5000    0.0000 F   0  0  0  0  0  0  0  0  0  0  0  0
   -0.7500    1.2990    0.0000 C   0  0  0  0  0  0  0  0  0  0  0  0
    0.7500    1.2990    0.0000 C   0  0  0  0  0  0  0  0  0  0  0  0
    1.5000    2.5981    0.0000 C   0  0  0  0  0  0  0  0  0  0  0  0
    2.2500    3.8971    0.0000 N   0  0  0  0  0  0  0  0  0  0  0  0
  1  2  3  0
  2  3  1  0
  3  4  2  0
  4  5  1  0
  5  6  2  0
  6  7  1  0
  7  8  1  0
  7  9  1  0
  7 10  1  0
 10 11  1  0
 10 12  1  0
 10 13  1  0
 13 14  1  0
 13 15  1  0
 13 16  1  0
 16 17  1  0
 16 18  1  0
 16 19  1  0
  6 20  1  0
 20 21  2  0
 21 22  1  0
 22 23  3  0
 21  3  1  0
M  END
$$$$

     RDKit          2D

 31 31  0  0  0  0  0  0  0  0999 V2000
    3.7500    1.2990    0.0000 O   0  0  0  0  0  0  0  0  0  0  0  0
    3.0000    0.0000    0.0000 C   0  0  0  0  0  0  0  0  0  0  0  0
    1.5000    0.0000    0.0000 C   0  0  0  0  0  0  0  0  0  0  0  0
    0.7500   -1.2990    0.0000 C   0  0  0  0  0  0  0  0  0  0  0  0
   -0.7500   -1.2990    0.0000 C   0  0  0  0  0  0  0  0  0  0  0  0
   -1.5000    0.0000    0.0000 C   0  0  0  0  0  0  0  0  0  0  0  0
   -3.0000    0.0000    0.0000 C   0  0  0  0  0  0  0  0  0  0  0  0
   -3.0000    1.5000    0.0000 F   0  0  0  0  0  0  0  0  0  0  0  0
   -3.0000   -1.5000    0.0000 F   0  0  0  0  0  0  0  0  0  0  0  0
   -4.5000    0.0000    0.0000 C   0  0  0  0  0  0  0  0  0  0  0  0
   -4.5000   -1.5000    0.0000 F   0  0  0  0  0  0  0  0  0  0  0  0
   -4.5000    1.5000    0.0000 F   0  0  0  0  0  0  0  0  0  0  0  0
   -6.0000    0.0000    0.0000 C   0  0  0  0  0  0  0  0  0  0  0  0
   -6.0000    1.5000    0.0000 F   0  0  0  0  0  0  0  0  0  0  0  0
   -6.0000   -1.5000    0.0000 F   0  0  0  0  0  0  0  0  0  0  0  0
   -7.5000    0.0000    0.0000 C   0  0  0  0  0  0  0  0  0  0  0  0
   -7.5000   -1.5000    0.0000 F   0  0  0  0  0  0  0  0  0  0  0  0
   -7.5000    1.5000    0.0000 F   0  0  0  0  0  0  0  0  0  0  0  0
   -9.0000    0.0000    0.0000 C   0  0  0  0  0  0  0  0  0  0  0  0
   -9.0000    1.5000    0.0000 F   0  0  0  0  0  0  0  0  0  0  0  0
   -9.0000   -1.5000    0.0000 F   0  0  0  0  0  0  0  0  0  0  0  0
  -10.5000    0.0000    0.0000 C   0  0  0  0  0  0  0  0  0  0  0  0
  -12.0000    0.0000    0.0000 F   0  0  0  0  0  0  0  0  0  0  0  0
  -10.5000   -1.5000    0.0000 F   0  0  0  0  0  0  0  0  0  0  0  0
  -10.5000    1.5000    0.0000 F   0  0  0  0  0  0  0  0  0  0  0  0
   -0.7500    1.2990    0.0000 C   0  0  0  0  0  0  0  0  0  0  0  0
    0.7500    1.2990    0.0000 C   0  0  0  0  0  0  0  0  0  0  0  0
    3.7500   -1.2990    0.0000 C   0  0  0  0  0  0  0  0  0  0  0  0
    4.5000   -2.5981    0.0000 F   0  0  0  0  0  0  0  0  0  0  0  0
    5.0490   -0.5490    0.0000 F   0  0  0  0  0  0  0  0  0  0  0  0
    2.4510   -2.0490    0.0000 F   0  0  0  0  0  0  0  0  0  0  0  0
  1  2  2  0
  2  3  1  0
  3  4  2  0
  4  5  1  0
  5  6  2  0
  6  7  1  0
  7  8  1  0
  7  9  1  0
  7 10  1  0
 10 11  1  0
 10 12  1  0
 10 13  1  0
 13 14  1  0
 13 15  1  0
 13 16  1  0
 16 17  1  0
 16 18  1  0
 16 19  1  0
 19 20  1  0
 19 21  1  0
 19 22  1  0
 22 23  1  0
 22 24  1  0
 22 25  1  0
  6 26  1  0
 26 27  2  0
  2 28  1  0
 28 29  1  0
 28 30  1  0
 28 31  1  0
 27  3  1  0
M  END
$$$$

     RDKit          2D

 22 21  0  0  0  0  0  0  0  0999 V2000
    0.0000    0.0000    0.0000 C   0  0  0  0  0  0  0  0  0  0  0  0
    1.2990    0.7500    0.0000 C   0  0  0  0  0  0  0  0  0  0  0  0
    2.5981   -0.0000    0.0000 C   0  0  0  0  0  0  0  0  0  0  0  0
    3.8971    0.7500    0.0000 C   0  0  0  0  0  0  0  0  0  0  0  0
    5.1962   -0.0000    0.0000 N   0  0  0  0  0  0  0  0  0  0  0  0
    6.4952    0.7500    0.0000 C   0  0  0  0  0  0  0  0  0  0  0  0
    7.7942   -0.0000    0.0000 C   0  0  0  0  0  0  0  0  0  0  0  0
    9.0933    0.7500    0.0000 C   0  0  0  0  0  0  0  0  0  0  0  0
    9.0933    2.2500    0.0000 O   0  0  0  0  0  0  0  0  0  0  0  0
   10.3923   -0.0000    0.0000 O   0  0  0  0  0  0  0  0  0  0  0  0
   11.6913    0.7500    0.0000 C   0  0  0  0  0  0  0  0  0  0  0  0
   12.9904   -0.0000    0.0000 C   0  0  0  0  0  0  0  0  0  0  0  0
    6.4952    2.2500    0.0000 C   0  0  0  0  0  0  0  0  0  0  0  0
    7.9952    2.2500    0.0000 F   0  0  0  0  0  0  0  0  0  0  0  0
    4.9952    2.2500    0.0000 F   0  0  0  0  0  0  0  0  0  0  0  0
    6.4952    3.7500    0.0000 C   0  0  0  0  0  0  0  0  0  0  0  0
    4.9952    3.7500    0.0000 F   0  0  0  0  0  0  0  0  0  0  0  0
    7.9952    3.7500    0.0000 F   0  0  0  0  0  0  0  0  0  0  0  0
    6.4952    5.2500    0.0000 C   0  0  0  0  0  0  0  0  0  0  0  0
    6.4952    6.7500    0.0000 F   0  0  0  0  0  0  0  0  0  0  0  0
    7.9952    5.2500    0.0000 F   0  0  0  0  0  0  0  0  0  0  0  0
    4.9952    5.2500    0.0000 F   0  0  0  0  0  0  0  0  0  0  0  0
  1  2  1  0
  2  3  1  0
  3  4  1  0
  4  5  1  0
  5  6  1  0
  6  7  1  0
  7  8  1  0
  8  9  2  0
  8 10  1  0
 10 11  1  0
 11 12  1  0
  6 13  1  0
 13 14  1  0
 13 15  1  0
 13 16  1  0
 16 17  1  0
 16 18  1  0
 16 19  1  0
 19 20  1  0
 19 21  1  0
 19 22  1  0
M  END
$$$$

     RDKit          2D

 25 25  0  0  0  0  0  0  0  0999 V2000
    3.7500    1.2990    0.0000 O   0  0  0  0  0  0  0  0  0  0  0  0
    3.0000    0.0000    0.0000 N   0  0  0  0  0  0  0  0  0  0  0  0
    3.7500   -1.2990    0.0000 O   0  0  0  0  0  0  0  0  0  0  0  0
    1.5000    0.0000    0.0000 C   0  0  0  0  0  0  0  0  0  0  0  0
    0.7500   -1.2990    0.0000 C   0  0  0  0  0  0  0  0  0  0  0  0
   -0.7500   -1.2990    0.0000 C   0  0  0  0  0  0  0  0  0  0  0  0
   -1.5000    0.0000    0.0000 C   0  0  0  0  0  0  0  0  0  0  0  0
   -0.7500    1.2990    0.0000 C   0  0  0  0  0  0  0  0  0  0  0  0
   -1.5000    2.5981    0.0000 C   0  0  0  0  0  0  0  0  0  0  0  0
   -0.2010    3.3481    0.0000 F   0  0  0  0  0  0  0  0  0  0  0  0
   -2.7990    1.8481    0.0000 F   0  0  0  0  0  0  0  0  0  0  0  0
   -2.2500    3.8971    0.0000 C   0  0  0  0  0  0  0  0  0  0  0  0
   -3.5490    3.1471    0.0000 F   0  0  0  0  0  0  0  0  0  0  0  0
   -0.9510    4.6471    0.0000 F   0  0  0  0  0  0  0  0  0  0  0  0
   -3.0000    5.1962    0.0000 C   0  0  0  0  0  0  0  0  0  0  0  0
   -1.7010    5.9462    0.0000 F   0  0  0  0  0  0  0  0  0  0  0  0
   -4.2990    4.4462    0.0000 F   0  0  0  0  0  0  0  0  0  0  0  0
   -3.7500    6.4952    0.0000 C   0  0  0  0  0  0  0  0  0  0  0  0
   -5.0490    5.7452    0.0000 F   0  0  0  0  0  0  0  0  0  0  0  0
   -2.4510    7.2452    0.0000 F   0  0  0  0  0  0  0  0  0  0  0  0
   -4.5000    7.7942    0.0000 C   0  0  0  0  0  0  0  0  0  0  0  0
   -5.2500    9.0933    0.0000 F   0  0  0  0  0  0  0  0  0  0  0  0
   -3.2010    8.5442    0.0000 F   0  0  0  0  0  0  0  0  0  0  0  0
   -5.7990    7.0442    0.0000 F   0  0  0  0  0  0  0  0  0  0  0  0
    0.7500    1.2990    0.0000 C   0  0  0  0  0  0  0  0  0  0  0  0
  1  2  2  0
  2  3  1  0
  2  4  1  0
  4  5  2  0
  5  6  1  0
  6  7  2  0
  7  8  1  0
  8  9  1  0
  9 10  1  0
  9 11  1  0
  9 12  1  0
 12 13  1  0
 12 14  1  0
 12 15  1  0
 15 16  1  0
 15 17  1  0
 15 18  1  0
 18 19  1  0
 18 20  1  0
 18 21  1  0
 21 22  1  0
 21 23  1  0
 21 24  1  0
  8 25  2  0
 25  4  1  0
M  CHG  2   2   1   3  -1
M  END
$$$$

     RDKit          2D

 52 51  0  0  0  0  0  0  0  0999 V2000
   -2.5981   -1.5000    0.0000 O   0  0  0  0  0  0  0  0  0  0  0  0
   -2.5981    0.0000    0.0000 C   0  0  0  0  0  0  0  0  0  0  0  0
   -1.2990    0.7500    0.0000 O   0  0  0  0  0  0  0  0  0  0  0  0
    0.0000    0.0000    0.0000 C   0  0  0  0  0  0  0  0  0  0  0  0
    1.2990    0.7500    0.0000 C   0  0  0  0  0  0  0  0  0  0  0  0
    2.5981   -0.0000    0.0000 C   0  0  0  0  0  0  0  0  0  0  0  0
    3.3481    1.2990    0.0000 F   0  0  0  0  0  0  0  0  0  0  0  0
    1.8481   -1.2990    0.0000 F   0  0  0  0  0  0  0  0  0  0  0  0
    3.8971   -0.7500    0.0000 C   0  0  0  0  0  0  0  0  0  0  0  0
    3.1471   -2.0490    0.0000 F   0  0  0  0  0  0  0  0  0  0  0  0
    4.6471    0.5490    0.0000 F   0  0  0  0  0  0  0  0  0  0  0  0
    5.1962   -1.5000    0.0000 C   0  0  0  0  0  0  0  0  0  0  0  0
    5.9462   -0.2010    0.0000 F   0  0  0  0  0  0  0  0  0  0  0  0
    4.4462   -2.7990    0.0000 F   0  0  0  0  0  0  0  0  0  0  0  0
    6.4952   -2.2500    0.0000 C   0  0  0  0  0  0  0  0  0  0  0  0
    5.7452   -3.5490    0.0000 F   0  0  0  0  0  0  0  0  0  0  0  0
    7.2452   -0.9510    0.0000 F   0  0  0  0  0  0  0  0  0  0  0  0
    7.7942   -3.0000    0.0000 C   0  0  0  0  0  0  0  0  0  0  0  0
    8.5442   -1.7010    0.0000 F   0  0  0  0  0  0  0  0  0  0  0  0
    7.0442   -4.2990    0.0000 F   0  0  0  0  0  0  0  0  0  0  0  0
    9.0933   -3.7500    0.0000 C   0  0  0  0  0  0  0  0  0  0  0  0
    8.3433   -5.0490    0.0000 F   0  0  0  0  0  0  0  0  0  0  0  0
    9.8433   -2.4510    0.0000 F   0  0  0  0  0  0  0  0  0  0  0  0
   10.3923   -4.5000    0.0000 C   0  0  0  0  0  0  0  0  0  0  0  0
   11.1423   -3.2010    0.0000 F   0  0  0  0  0  0  0  0  0  0  0  0
    9.6423   -5.7990    0.0000 F   0  0  0  0  0  0  0  0  0  0  0  0
   11.6913   -5.2500    0.0000 C   0  0  0  0  0  0  0  0  0  0  0  0
   12.9904   -6.0000    0.0000 F   0  0  0  0  0  0  0  0  0  0  0  0
   10.9413   -6.5490    0.0000 F   0  0  0  0  0  0  0  0  0  0  0  0
   12.4413   -3.9510    0.0000 F   0  0  0  0  0  0  0  0  0  0  0  0
   -3.8971    0.7500    0.0000 C   0  0  0  0  0  0  0  0  0  0  0  0
   -4.6471   -0.5490    0.0000 F   0  0  0  0  0  0  0  0  0  0  0  0
   -3.1471    2.0490    0.0000 F   0  0  0  0  0  0  0  0  0  0  0  0
   -5.1962    1.5000    0.0000 C   0  0  0  0  0  0  0  0  0  0  0  0
   -4.4462    2.7990    0.0000 F   0  0  0  0  0  0  0  0  0  0  0  0
   -5.9462    0.2010    0.0000 F   0  0  0  0  0  0  0  0  0  0  0  0
   -6.4952    2.2500    0.0000 C   0  0  0  0  0  0  0  0  0  0  0  0
   -7.2452    0.9510    0.0000 F   0  0  0  0  0  0  0  0  0  0  0  0
   -5.7452    3.5490    0.0000 F   0  0  0  0  0  0  0  0  0  0  0  0
   -7.7942    3.0000    0.0000 C   0  0  0  0  0  0  0  0  0  0  0  0
   -7.0442    4.2990    0.0000 F   0  0  0  0  0  0  0  0  0  0  0  0
   -8.5442    1.7010    0.0000 F   0  0  0  0  0  0  0  0  0  0  0  0
   -9.0933    3.7500    0.0000 C   0  0  0  0  0  0  0  0  0  0  0  0
   -9.8433    2.4510    0.0000 F   0  0  0  0  0  0  0  0  0  0  0  0
   -8.3433    5.0490    0.0000 F   0  0  0  0  0  0  0  0  0  0  0  0
  -10.3923    4.5000    0.0000 C   0  0  0  0  0  0  0  0  0  0  0  0
   -9.6423    5.7990    0.0000 F   0  0  0  0  0  0  0  0  0  0  0  0
  -11.1423    3.2010    0.0000 F   0  0  0  0  0  0  0  0  0  0  0  0
  -11.6913    5.2500    0.0000 C   0  0  0  0  0  0  0  0  0  0  0  0
  -12.9904    6.0000    0.0000 F   0  0  0  0  0  0  0  0  0  0  0  0
  -12.4413    3.9510    0.0000 F   0  0  0  0  0  0  0  0  0  0  0  0
  -10.9413    6.5490    0.0000 F   0  0  0  0  0  0  0  0  0  0  0  0
  1  2  2  0
  2  3  1  0
  3  4  1  0
  4  5  1  0
  5  6  1  0
  6  7  1  0
  6  8  1  0
  6  9  1  0
  9 10  1  0
  9 11  1  0
  9 12  1  0
 12 13  1  0
 12 14  1  0
 12 15  1  0
 15 16  1  0
 15 17  1  0
 15 18  1  0
 18 19  1  0
 18 20  1  0
 18 21  1  0
 21 22  1  0
 21 23  1  0
 21 24  1  0
 24 25  1  0
 24 26  1  0
 24 27  1  0
 27 28  1  0
 27 29  1  0
 27 30  1  0
  2 31  1  0
 31 32  1  0
 31 33  1  0
 31 34  1  0
 34 35  1  0
 34 36  1  0
 34 37  1  0
 37 38  1  0
 37 39  1  0
 37 40  1  0
 40 41  1  0
 40 42  1  0
 40 43  1  0
 43 44  1  0
 43 45  1  0
 43 46  1  0
 46 47  1  0
 46 48  1  0
 46 49  1  0
 49 50  1  0
 49 51  1  0
 49 52  1  0
M  END
$$$$

     RDKit          2D

 22 22  0  0  0  0  0  0  0  0999 V2000
    3.7500   -1.2990    0.0000 C   0  0  0  0  0  0  0  0  0  0  0  0
    3.0000    0.0000    0.0000 O   0  0  0  0  0  0  0  0  0  0  0  0
    1.5000    0.0000    0.0000 C   0  0  0  0  0  0  0  0  0  0  0  0
    0.7500   -1.2990    0.0000 C   0  0  0  0  0  0  0  0  0  0  0  0
   -0.7500   -1.2990    0.0000 C   0  0  0  0  0  0  0  0  0  0  0  0
   -1.5000    0.0000    0.0000 C   0  0  0  0  0  0  0  0  0  0  0  0
   -3.0000    0.0000    0.0000 Br  0  0  0  0  0  0  0  0  0  0  0  0
   -0.7500    1.2990    0.0000 C   0  0  0  0  0  0  0  0  0  0  0  0
    0.7500    1.2990    0.0000 C   0  0  0  0  0  0  0  0  0  0  0  0
    1.5000    2.5981    0.0000 C   0  0  0  0  0  0  0  0  0  0  0  0
    2.7990    1.8481    0.0000 F   0  0  0  0  0  0  0  0  0  0  0  0
    0.2010    3.3481    0.0000 F   0  0  0  0  0  0  0  0  0  0  0  0
    2.2500    3.8971    0.0000 C   0  0  0  0  0  0  0  0  0  0  0  0
    0.9510    4.6471    0.0000 F   0  0  0  0  0  0  0  0  0  0  0  0
    3.5490    3.1471    0.0000 F   0  0  0  0  0  0  0  0  0  0  0  0
    3.0000    5.1962    0.0000 C   0  0  0  0  0  0  0  0  0  0  0  0
    4.2990    4.4462    0.0000 F   0  0  0  0  0  0  0  0  0  0  0  0
    1.7010    5.9462    0.0000 F   0  0  0  0  0  0  0  0  0  0  0  0
    3.7500    6.4952    0.0000 C   0  0  0  0  0  0  0  0  0  0  0  0
    4.5000    7.7942    0.0000 F   0  0  0  0  0  0  0  0  0  0  0  0
    2.4510    7.2452    0.0000 F   0  0  0  0  0  0  0  0  0  0  0  0
    5.0490    5.7452    0.0000 F   0  0  0  0  0  0  0  0  0  0  0  0
  1  2  1  0
  2  3  1  0
  3  4  2  0
  4  5  1  0
  5  6  2  0
  6  7  1  0
  6  8  1  0
  8  9  2  0
  9 10  1  0
 10 11  1  0
 10 12  1  0
 10 13  1  0
 13 14  1  0
 13 15  1  0
 13 16  1  0
 16 17  1  0
 16 18  1  0
 16 19  1  0
 19 20  1  0
 19 21  1  0
 19 22  1  0
  9  3  1  0
M  END
$$$$

     RDKit          2D

 26 25  0  0  0  0  0  0  0  0999 V2000
    0.0000    0.0000    0.0000 C   0  0  0  0  0  0  0  0  0  0  0  0
    1.2990    0.7500    0.0000 C   0  0  0  0  0  0  0  0  0  0  0  0
    2.5981   -0.0000    0.0000 C   0  0  0  0  0  0  0  0  0  0  0  0
    3.8971    0.7500    0.0000 C   0  0  0  0  0  0  0  0  0  0  0  0
    5.1962   -0.0000    0.0000 N   0  0  0  0  0  0  0  0  0  0  0  0
    6.4952    0.7500    0.0000 C   0  0  0  0  0  0  0  0  0  0  0  0
    6.4952    2.2500    0.0000 O   0  0  0  0  0  0  0  0  0  0  0  0
    7.7942   -0.0000    0.0000 C   0  0  0  0  0  0  0  0  0  0  0  0
    8.5442    1.2990    0.0000 F   0  0  0  0  0  0  0  0  0  0  0  0
    7.0442   -1.2990    0.0000 F   0  0  0  0  0  0  0  0  0  0  0  0
    9.0933   -0.7500    0.0000 C   0  0  0  0  0  0  0  0  0  0  0  0
    8.3433   -2.0490    0.0000 F   0  0  0  0  0  0  0  0  0  0  0  0
    9.8433    0.5490    0.0000 F   0  0  0  0  0  0  0  0  0  0  0  0
   10.3923   -1.5000    0.0000 C   0  0  0  0  0  0  0  0  0  0  0  0
   11.1423   -0.2010    0.0000 F   0  0  0  0  0  0  0  0  0  0  0  0
    9.6423   -2.7990    0.0000 F   0  0  0  0  0  0  0  0  0  0  0  0
   11.6913   -2.2500    0.0000 C   0  0  0  0  0  0  0  0  0  0  0  0
   10.9413   -3.5490    0.0000 F   0  0  0  0  0  0  0  0  0  0  0  0
   12.4413   -0.9510    0.0000 F   0  0  0  0  0  0  0  0  0  0  0  0
   12.9904   -3.0000    0.0000 C   0  0  0  0  0  0  0  0  0  0  0  0
   13.7404   -1.7010    0.0000 F   0  0  0  0  0  0  0  0  0  0  0  0
   12.2404   -4.2990    0.0000 F   0  0  0  0  0  0  0  0  0  0  0  0
   14.2894   -3.7500    0.0000 C   0  0  0  0  0  0  0  0  0  0  0  0
   15.5885   -4.5000    0.0000 F   0  0  0  0  0  0  0  0  0  0  0  0
   13.5394   -5.0490    0.0000 F   0  0  0  0  0  0  0  0  0  0  0  0
   15.0394   -2.4510    0.0000 F   0  0  0  0  0  0  0  0  0  0  0  0
  1  2  1  0
  2  3  1  0
  3  4  1  0
  4  5  1  0
  5  6  1  0
  6  7  2  0
  6  8  1  0
  8  9  1  0
  8 10  1  0
  8 11  1  0
 11 12  1  0
 11 13  1  0
 11 14  1  0
 14 15  1  0
 14 16  1  0
 14 17  1  0
 17 18  1  0
 17 19  1  0
 17 20  1  0
 20 21  1  0
 20 22  1  0
 20 23  1  0
 23 24  1  0
 23 25  1  0
 23 26  1  0
M  END
$$$$

     RDKit          2D

 18 18  0  0  0  0  0  0  0  0999 V2000
    3.7500    1.2990    0.0000 O   0  0  0  0  0  0  0  0  0  0  0  0
    3.0000    0.0000    0.0000 C   0  0  0  0  0  0  0  0  0  0  0  0
    1.5000    0.0000    0.0000 N   0  0  0  0  0  0  0  0  0  0  0  0
    0.7500   -1.2990    0.0000 C   0  0  0  0  0  0  0  0  0  0  0  0
   -0.7500   -1.2990    0.0000 C   0  0  0  0  0  0  0  0  0  0  0  0
   -1.5000    0.0000    0.0000 C   0  0  0  0  0  0  0  0  0  0  0  0
   -0.7500    1.2990    0.0000 C   0  0  0  0  0  0  0  0  0  0  0  0
    0.7500    1.2990    0.0000 C   0  0  0  0  0  0  0  0  0  0  0  0
    3.7500   -1.2990    0.0000 C   0  0  0  0  0  0  0  0  0  0  0  0
    5.0490   -0.5490    0.0000 F   0  0  0  0  0  0  0  0  0  0  0  0
    2.4510   -2.0490    0.0000 F   0  0  0  0  0  0  0  0  0  0  0  0
    4.5000   -2.5981    0.0000 C   0  0  0  0  0  0  0  0  0  0  0  0
    3.2010   -3.3481    0.0000 F   0  0  0  0  0  0  0  0  0  0  0  0
    5.7990   -1.8481    0.0000 F   0  0  0  0  0  0  0  0  0  0  0  0
    5.2500   -3.8971    0.0000 C   0  0  0  0  0  0  0  0  0  0  0  0
    6.0000   -5.1962    0.0000 F   0  0  0  0  0  0  0  0  0  0  0  0
    6.5490   -3.1471    0.0000 F   0  0  0  0  0  0  0  0  0  0  0  0
    3.9510   -4.6471    0.0000 F   0  0  0  0  0  0  0  0  0  0  0  0
  1  2  2  0
  2  3  1  0
  3  4  1  0
  4  5  1  0
  5  6  1  0
  6  7  1  0
  7  8  1  0
  2  9  1  0
  9 10  1  0
  9 11  1  0
  9 12  1  0
 12 13  1  0
 12 14  1  0
 12 15  1  0
 15 16  1  0
 15 17  1  0
 15 18  1  0
  8  3  1  0
M  END
$$$$

     RDKit          2D

 21 21  0  0  0  0  0  0  0  0999 V2000
    6.0000   -2.5981    0.0000 C   0  0  0  0  0  0  0  0  0  0  0  0
    5.2500   -1.2990    0.0000 C   0  0  0  0  0  0  0  0  0  0  0  0
    3.7500   -1.2990    0.0000 O   0  0  0  0  0  0  0  0  0  0  0  0
    3.0000    0.0000    0.0000 C   0  0  0  0  0  0  0  0  0  0  0  0
    3.7500    1.2990    0.0000 O   0  0  0  0  0  0  0  0  0  0  0  0
    1.5000    0.0000    0.0000 C   0  0  0  0  0  0  0  0  0  0  0  0
    0.7500   -1.2990    0.0000 C   0  0  0  0  0  0  0  0  0  0  0  0
   -0.7500   -1.2990    0.0000 C   0  0  0  0  0  0  0  0  0  0  0  0
   -1.5000    0.0000    0.0000 C   0  0  0  0  0  0  0  0  0  0  0  0
   -3.0000    0.0000    0.0000 C   0  0  0  0  0  0  0  0  0  0  0  0
   -3.0000    1.5000    0.0000 F   0  0  0  0  0  0  0  0  0  0  0  0
   -3.0000   -1.5000    0.0000 F   0  0  0  0  0  0  0  0  0  0  0  0
   -4.5000    0.0000    0.0000 C   0  0  0  0  0  0  0  0  0  0  0  0
   -4.5000   -1.5000    0.0000 F   0  0  0  0  0  0  0  0  0  0  0  0
   -4.5000    1.5000    0.0000 F   0  0  0  0  0  0  0  0  0  0  0  0
   -6.0000    0.0000    0.0000 C   0  0  0  0  0  0  0  0  0  0  0  0
   -7.5000    0.0000    0.0000 F   0  0  0  0  0  0  0  0  0  0  0  0
   -6.0000    1.5000    0.0000 F   0  0  0  0  0  0  0  0  0  0  0  0
   -6.0000   -1.5000    0.0000 F   0  0  0  0  0  0  0  0  0  0  0  0
   -0.7500    1.2990    0.0000 N   0  0  0  0  0  0  0  0  0  0  0  0
    0.7500    1.2990    0.0000 C   0  0  0  0  0  0  0  0  0  0  0  0
  1  2  1  0
  2  3  1  0
  3  4  1  0
  4  5  2  0
  4  6  1  0
  6  7  2  0
  7  8  1  0
  8  9  2  0
  9 10  1  0
 10 11  1  0
 10 12  1  0
 10 13  1  0
 13 14  1  0
 13 15  1  0
 13 16  1  0
 16 17  1  0
 16 18  1  0
 16 19  1  0
  9 20  1  0
 20 21  2  0
 21  6  1  0
M  END
$$$$

     RDKit          2D

 22 21  0  0  0  0  0  0  0  0999 V2000
    0.0000    0.0000    0.0000 C   0  0  0  0  0  0  0  0  0  0  0  0
    1.2990    0.7500    0.0000 C   0  0  0  0  0  0  0  0  0  0  0  0
    2.5981    0.0000    0.0000 C   0  0  0  0  0  0  0  0  0  0  0  0
    2.5981   -1.5000    0.0000 O   0  0  0  0  0  0  0  0  0  0  0  0
    3.8971    0.7500    0.0000 O   0  0  0  0  0  0  0  0  0  0  0  0
    5.1962   -0.0000    0.0000 C   0  0  0  0  0  0  0  0  0  0  0  0
    6.4952    0.7500    0.0000 C   0  0  0  0  0  0  0  0  0  0  0  0
    1.2990    2.2500    0.0000 S   0  0  0  0  0  0  0  0  0  0  0  0
   -0.0817    2.8361    0.0000 O   0  0  0  0  0  0  0  0  0  0  0  0
    2.5981    3.0000    0.0000 C   0  0  0  0  0  0  0  0  0  0  0  0
    3.3481    1.7010    0.0000 F   0  0  0  0  0  0  0  0  0  0  0  0
    3.8971    3.7500    0.0000 F   0  0  0  0  0  0  0  0  0  0  0  0
    1.8481    4.2990    0.0000 C   0  0  0  0  0  0  0  0  0  0  0  0
    3.1471    5.0490    0.0000 F   0  0  0  0  0  0  0  0  0  0  0  0
    0.4673    3.7130    0.0000 F   0  0  0  0  0  0  0  0  0  0  0  0
    1.0981    5.5981    0.0000 C   0  0  0  0  0  0  0  0  0  0  0  0
   -0.2010    4.8481    0.0000 F   0  0  0  0  0  0  0  0  0  0  0  0
    2.3971    6.3481    0.0000 F   0  0  0  0  0  0  0  0  0  0  0  0
    0.3481    6.8971    0.0000 C   0  0  0  0  0  0  0  0  0  0  0  0
   -0.4019    8.1962    0.0000 F   0  0  0  0  0  0  0  0  0  0  0  0
    1.6471    7.6471    0.0000 F   0  0  0  0  0  0  0  0  0  0  0  0
   -0.9510    6.1471    0.0000 F   0  0  0  0  0  0  0  0  0  0  0  0
  1  2  2  0
  2  3  1  0
  3  4  2  0
  3  5  1  0
  5  6  1  0
  6  7  1  0
  2  8  1  0
  8  9  2  0
  8 10  1  0
 10 11  1  0
 10 12  1  0
 10 13  1  0
 13 14  1  0
 13 15  1  0
 13 16  1  0
 16 17  1  0
 16 18  1  0
 16 19  1  0
 19 20  1  0
 19 21  1  0
 19 22  1  0
M  END
$$$$

     RDKit          2D

 27 27  0  0  0  0  0  0  0  0999 V2000
    3.7500    1.2990    0.0000 O   0  0  0  0  0  0  0  0  0  0  0  0
    3.0000    0.0000    0.0000 N   0  0  0  0  0  0  0  0  0  0  0  0
    3.7500   -1.2990    0.0000 O   0  0  0  0  0  0  0  0  0  0  0  0
    1.5000    0.0000    0.0000 C   0  0  0  0  0  0  0  0  0  0  0  0
    0.7500   -1.2990    0.0000 C   0  0  0  0  0  0  0  0  0  0  0  0
   -0.7500   -1.2990    0.0000 C   0  0  0  0  0  0  0  0  0  0  0  0
   -1.5000    0.0000    0.0000 C   0  0  0  0  0  0  0  0  0  0  0  0
   -3.0000    0.0000    0.0000 O   0  0  0  0  0  0  0  0  0  0  0  0
   -3.7500    1.2990    0.0000 C   0  0  0  0  0  0  0  0  0  0  0  0
   -5.2500    1.2990    0.0000 C   0  0  0  0  0  0  0  0  0  0  0  0
   -5.2500    2.7990    0.0000 F   0  0  0  0  0  0  0  0  0  0  0  0
   -5.2500   -0.2010    0.0000 F   0  0  0  0  0  0  0  0  0  0  0  0
   -6.7500    1.2990    0.0000 C   0  0  0  0  0  0  0  0  0  0  0  0
   -6.7500   -0.2010    0.0000 F   0  0  0  0  0  0  0  0  0  0  0  0
   -6.7500    2.7990    0.0000 F   0  0  0  0  0  0  0  0  0  0  0  0
   -8.2500    1.2990    0.0000 C   0  0  0  0  0  0  0  0  0  0  0  0
   -8.2500    2.7990    0.0000 F   0  0  0  0  0  0  0  0  0  0  0  0
   -8.2500   -0.2010    0.0000 F   0  0  0  0  0  0  0  0  0  0  0  0
   -9.7500    1.2990    0.0000 C   0  0  0  0  0  0  0  0  0  0  0  0
   -9.7500   -0.2010    0.0000 F   0  0  0  0  0  0  0  0  0  0  0  0
   -9.7500    2.7990    0.0000 F   0  0  0  0  0  0  0  0  0  0  0  0
  -11.2500    1.2990    0.0000 C   0  0  0  0  0  0  0  0  0  0  0  0
  -12.7500    1.2990    0.0000 F   0  0  0  0  0  0  0  0  0  0  0  0
  -11.2500    2.7990    0.0000 F   0  0  0  0  0  0  0  0  0  0  0  0
  -11.2500   -0.2010    0.0000 F   0  0  0  0  0  0  0  0  0  0  0  0
   -0.7500    1.2990    0.0000 C   0  0  0  0  0  0  0  0  0  0  0  0
    0.7500    1.2990    0.0000 C   0  0  0  0  0  0  0  0  0  0  0  0
  1  2  2  0
  2  3  1  0
  2  4  1  0
  4  5  2  0
  5  6  1  0
  6  7  2  0
  7  8  1  0
  8  9  1  0
  9 10  1  0
 10 11  1  0
 10 12  1  0
 10 13  1  0
 13 14  1  0
 13 15  1  0
 13 16  1  0
 16 17  1  0
 16 18  1  0
 16 19  1  0
 19 20  1  0
 19 21  1  0
 19 22  1  0
 22 23  1  0
 22 24  1  0
 22 25  1  0
  7 26  1  0
 26 27  2  0
 27  4  1  0
M  CHG  2   2   1   3  -1
M  END
$$$$

     RDKit          2D

 51 50  0  0  0  0  0  0  0  0999 V2000
    0.0000    0.0000    0.0000 C   0  0  0  0  0  0  0  0  0  0  0  0
    1.2990    0.7500    0.0000 C   0  0  0  0  0  0  0  0  0  0  0  0
    2.5981   -0.0000    0.0000 C   0  0  0  0  0  0  0  0  0  0  0  0
    3.8971    0.7500    0.0000 C   0  0  0  0  0  0  0  0  0  0  0  0
    3.8971    2.2500    0.0000 O   0  0  0  0  0  0  0  0  0  0  0  0
    5.1962   -0.0000    0.0000 O   0  0  0  0  0  0  0  0  0  0  0  0
    6.4952    0.7500    0.0000 C   0  0  0  0  0  0  0  0  0  0  0  0
    7.7942   -0.0000    0.0000 C   0  0  0  0  0  0  0  0  0  0  0  0
    9.0933    0.7500    0.0000 C   0  0  0  0  0  0  0  0  0  0  0  0
    9.8433   -0.5490    0.0000 F   0  0  0  0  0  0  0  0  0  0  0  0
    8.3433    2.0490    0.0000 F   0  0  0  0  0  0  0  0  0  0  0  0
   10.3923    1.5000    0.0000 C   0  0  0  0  0  0  0  0  0  0  0  0
    9.6423    2.7990    0.0000 F   0  0  0  0  0  0  0  0  0  0  0  0
   11.1423    0.2010    0.0000 F   0  0  0  0  0  0  0  0  0  0  0  0
   11.6913    2.2500    0.0000 C   0  0  0  0  0  0  0  0  0  0  0  0
   12.4413    0.9510    0.0000 F   0  0  0  0  0  0  0  0  0  0  0  0
   10.9413    3.5490    0.0000 F   0  0  0  0  0  0  0  0  0  0  0  0
   12.9904    3.0000    0.0000 C   0  0  0  0  0  0  0  0  0  0  0  0
   12.2404    4.2990    0.0000 F   0  0  0  0  0  0  0  0  0  0  0  0
   13.7404    1.7010    0.0000 F   0  0  0  0  0  0  0  0  0  0  0  0
   14.2894    3.7500    0.0000 C   0  0  0  0  0  0  0  0  0  0  0  0
   15.0394    2.4510    0.0000 F   0  0  0  0  0  0  0  0  0  0  0  0
   13.5394    5.0490    0.0000 F   0  0  0  0  0  0  0  0  0  0  0  0
   15.5885    4.5000    0.0000 C   0  0  0  0  0  0  0  0  0  0  0  0
   16.8875    5.2500    0.0000 F   0  0  0  0  0  0  0  0  0  0  0  0
   14.8385    5.7990    0.0000 F   0  0  0  0  0  0  0  0  0  0  0  0
   16.3385    3.2010    0.0000 F   0  0  0  0  0  0  0  0  0  0  0  0
    1.2990    2.2500    0.0000 C   0  0  0  0  0  0  0  0  0  0  0  0
    0.0000    3.0000    0.0000 O   0  0  0  0  0  0  0  0  0  0  0  0
    2.5981    3.0000    0.0000 O   0  0  0  0  0  0  0  0  0  0  0  0
    2.5981    4.5000    0.0000 C   0  0  0  0  0  0  0  0  0  0  0  0
    3.8971    5.2500    0.0000 C   0  0  0  0  0  0  0  0  0  0  0  0
    3.8971    6.7500    0.0000 C   0  0  0  0  0  0  0  0  0  0  0  0
    5.3971    6.7500    0.0000 F   0  0  0  0  0  0  0  0  0  0  0  0
    2.3971    6.7500    0.0000 F   0  0  0  0  0  0  0  0  0  0  0  0
    3.8971    8.2500    0.0000 C   0  0  0  0  0  0  0  0  0  0  0  0
    2.3971    8.2500    0.0000 F   0  0  0  0  0  0  0  0  0  0  0  0
    5.3971    8.2500    0.0000 F   0  0  0  0  0  0  0  0  0  0  0  0
    3.8971    9.7500    0.0000 C   0  0  0  0  0  0  0  0  0  0  0  0
    5.3971    9.7500    0.0000 F   0  0  0  0  0  0  0  0  0  0  0  0
    2.3971    9.7500    0.0000 F   0  0  0  0  0  0  0  0  0  0  0  0
    3.8971   11.2500    0.0000 C   0  0  0  0  0  0  0  0  0  0  0  0
    2.3971   11.2500    0.0000 F   0  0  0  0  0  0  0  0  0  0  0  0
    5.3971   11.2500    0.0000 F   0  0  0  0  0  0  0  0  0  0  0  0
    3.8971   12.7500    0.0000 C   0  0  0  0  0  0  0  0  0  0  0  0
    5.3971   12.7500    0.0000 F   0  0  0  0  0  0  0  0  0  0  0  0
    2.3971   12.7500    0.0000 F   0  0  0  0  0  0  0  0  0  0  0  0
    3.8971   14.2500    0.0000 C   0  0  0  0  0  0  0  0  0  0  0  0
    3.8971   15.7500    0.0000 F   0  0  0  0  0  0  0  0  0  0  0  0
    2.3971   14.2500    0.0000 F   0  0  0  0  0  0  0  0  0  0  0  0
    5.3971   14.2500    0.0000 F   0  0  0  0  0  0  0  0  0  0  0  0
  1  2  2  0
  2  3  1  0
  3  4  1  0
  4  5  2  0
  4  6  1  0
  6  7  1  0
  7  8  1  0
  8  9  1  0
  9 10  1  0
  9 11  1  0
  9 12  1  0
 12 13  1  0
 12 14  1  0
 12 15  1  0
 15 16  1  0
 15 17  1  0
 15 18  1  0
 18 19  1  0
 18 20  1  0
 18 21  1  0
 21 22  1  0
 21 23  1  0
 21 24  1  0
 24 25  1  0
 24 26  1  0
 24 27  1  0
  2 28  1  0
 28 29  2  0
 28 30  1  0
 30 31  1  0
 31 32  1  0
 32 33  1  0
 33 34  1  0
 33 35  1  0
 33 36  1  0
 36 37  1  0
 36 38  1  0
 36 39  1  0
 39 40  1  0
 39 41  1  0
 39 42  1  0
 42 43  1  0
 42 44  1  0
 42 45  1  0
 45 46  1  0
 45 47  1  0
 45 48  1  0
 48 49  1  0
 48 50  1  0
 48 51  1  0
M  END
$$$$

     RDKit          2D

 17 17  0  0  0  0  0  0  0  0999 V2000
    2.7760    0.0000    0.0000 C   0  0  0  0  0  0  0  0  0  0  0  0
    1.2760    0.0000    0.0000 C   0  0  0  0  0  0  0  0  0  0  0  0
    0.3943    1.2135    0.0000 N   0  0  0  0  0  0  0  0  0  0  0  0
   -1.0323    0.7500    0.0000 N   0  0  0  0  0  0  0  0  0  0  0  0
   -1.0323   -0.7500    0.0000 C   0  0  0  0  0  0  0  0  0  0  0  0
   -2.2458   -1.6317    0.0000 C   0  0  0  0  0  0  0  0  0  0  0  0
   -3.1275   -0.4182    0.0000 F   0  0  0  0  0  0  0  0  0  0  0  0
   -1.3641   -2.8452    0.0000 F   0  0  0  0  0  0  0  0  0  0  0  0
   -3.4593   -2.5134    0.0000 C   0  0  0  0  0  0  0  0  0  0  0  0
   -2.5777   -3.7269    0.0000 F   0  0  0  0  0  0  0  0  0  0  0  0
   -4.3410   -1.2998    0.0000 F   0  0  0  0  0  0  0  0  0  0  0  0
   -4.6729   -3.3950    0.0000 C   0  0  0  0  0  0  0  0  0  0  0  0
   -5.8864   -4.2767    0.0000 F   0  0  0  0  0  0  0  0  0  0  0  0
   -5.5545   -2.1815    0.0000 F   0  0  0  0  0  0  0  0  0  0  0  0
   -3.7912   -4.6086    0.0000 F   0  0  0  0  0  0  0  0  0  0  0  0
    0.3943   -1.2135    0.0000 C   0  0  0  0  0  0  0  0  0  0  0  0
    0.8578   -2.6401    0.0000 Br  0  0  0  0  0  0  0  0  0  0  0  0
  1  2  1  0
  2  3  1  0
  3  4  1  0
  4  5  2  0
  5  6  1  0
  6  7  1  0
  6  8  1  0
  6  9  1  0
  9 10  1  0
  9 11  1  0
  9 12  1  0
 12 13  1  0
 12 14  1  0
 12 15  1  0
  5 16  1  0
 16 17  1  0
 16  2  2  0
M  END
$$$$

     RDKit          2D

 26 26  0  0  0  0  0  0  0  0999 V2000
    3.7500    1.2990    0.0000 O   0  0  0  0  0  0  0  0  0  0  0  0
    3.0000    0.0000    0.0000 C   0  0  0  0  0  0  0  0  0  0  0  0
    1.5000    0.0000    0.0000 C   0  0  0  0  0  0  0  0  0  0  0  0
    0.7500   -1.2990    0.0000 C   0  0  0  0  0  0  0  0  0  0  0  0
    1.5000   -2.5981    0.0000 F   0  0  0  0  0  0  0  0  0  0  0  0
   -0.7500   -1.2990    0.0000 C   0  0  0  0  0  0  0  0  0  0  0  0
   -1.5000   -2.5981    0.0000 F   0  0  0  0  0  0  0  0  0  0  0  0
   -1.5000    0.0000    0.0000 C   0  0  0  0  0  0  0  0  0  0  0  0
   -3.0000    0.0000    0.0000 F   0  0  0  0  0  0  0  0  0  0  0  0
   -0.7500    1.2990    0.0000 C   0  0  0  0  0  0  0  0  0  0  0  0
   -1.5000    2.5981    0.0000 F   0  0  0  0  0  0  0  0  0  0  0  0
    0.7500    1.2990    0.0000 C   0  0  0  0  0  0  0  0  0  0  0  0
    1.5000    2.5981    0.0000 F   0  0  0  0  0  0  0  0  0  0  0  0
    3.7500   -1.2990    0.0000 C   0  0  0  0  0  0  0  0  0  0  0  0
    5.0490   -0.5490    0.0000 F   0  0  0  0  0  0  0  0  0  0  0  0
    2.4510   -2.0490    0.0000 F   0  0  0  0  0  0  0  0  0  0  0  0
    4.5000   -2.5981    0.0000 C   0  0  0  0  0  0  0  0  0  0  0  0
    3.2010   -3.3481    0.0000 F   0  0  0  0  0  0  0  0  0  0  0  0
    5.7990   -1.8481    0.0000 F   0  0  0  0  0  0  0  0  0  0  0  0
    5.2500   -3.8971    0.0000 C   0  0  0  0  0  0  0  0  0  0  0  0
    6.5490   -3.1471    0.0000 F   0  0  0  0  0  0  0  0  0  0  0  0
    3.9510   -4.6471    0.0000 F   0  0  0  0  0  0  0  0  0  0  0  0
    6.0000   -5.1962    0.0000 C   0  0  0  0  0  0  0  0  0  0  0  0
    6.7500   -6.4952    0.0000 F   0  0  0  0  0  0  0  0  0  0  0  0
    4.7010   -5.9462    0.0000 F   0  0  0  0  0  0  0  0  0  0  0  0
    7.2990   -4.4462    0.0000 F   0  0  0  0  0  0  0  0  0  0  0  0
  1  2  2  0
  2  3  1  0
  3  4  2  0
  4  5  1  0
  4  6  1  0
  6  7  1  0
  6  8  2  0
  8  9  1  0
  8 10  1  0
 10 11  1  0
 10 12  2  0
 12 13  1  0
  2 14  1  0
 14 15  1  0
 14 16  1  0
 14 17  1  0
 17 18  1  0
 17 19  1  0
 17 20  1  0
 20 21  1  0
 20 22  1  0
 20 23  1  0
 23 24  1  0
 23 25  1  0
 23 26  1  0
 12  3  1  0
M  END
$$$$

     RDKit          2D

 20 20  0  0  0  0  0  0  0  0999 V2000
    3.0000   -2.5981    0.0000 O   0  0  0  0  0  0  0  0  0  0  0  0
    3.7500   -1.2990    0.0000 C   0  0  0  0  0  0  0  0  0  0  0  0
    3.0000    0.0000    0.0000 N   0  0  0  0  0  0  0  0  0  0  0  0
    1.5000    0.0000    0.0000 C   0  0  0  0  0  0  0  0  0  0  0  0
    0.7500   -1.2990    0.0000 C   0  0  0  0  0  0  0  0  0  0  0  0
   -0.7500   -1.2990    0.0000 C   0  0  0  0  0  0  0  0  0  0  0  0
   -1.5000    0.0000    0.0000 C   0  0  0  0  0  0  0  0  0  0  0  0
   -0.7500    1.2990    0.0000 C   0  0  0  0  0  0  0  0  0  0  0  0
    0.7500    1.2990    0.0000 C   0  0  0  0  0  0  0  0  0  0  0  0
    1.5000    2.5981    0.0000 Cl  0  0  0  0  0  0  0  0  0  0  0  0
    5.2500   -1.2990    0.0000 C   0  0  0  0  0  0  0  0  0  0  0  0
    5.2500   -2.7990    0.0000 F   0  0  0  0  0  0  0  0  0  0  0  0
    5.2500    0.2010    0.0000 F   0  0  0  0  0  0  0  0  0  0  0  0
    6.7500   -1.2990    0.0000 C   0  0  0  0  0  0  0  0  0  0  0  0
    6.7500    0.2010    0.0000 F   0  0  0  0  0  0  0  0  0  0  0  0
    6.7500   -2.7990    0.0000 F   0  0  0  0  0  0  0  0  0  0  0  0
    8.2500   -1.2990    0.0000 C   0  0  0  0  0  0  0  0  0  0  0  0
    9.7500   -1.2990    0.0000 F   0  0  0  0  0  0  0  0  0  0  0  0
    8.2500   -2.7990    0.0000 F   0  0  0  0  0  0  0  0  0  0  0  0
    8.2500    0.2010    0.0000 F   0  0  0  0  0  0  0  0  0  0  0  0
  1  2  2  0
  2  3  1  0
  3  4  1  0
  4  5  2  0
  5  6  1  0
  6  7  2  0
  7  8  1  0
  8  9  2  0
  9 10  1  0
  2 11  1  0
 11 12  1  0
 11 13  1  0
 11 14  1  0
 14 15  1  0
 14 16  1  0
 14 17  1  0
 17 18  1  0
 17 19  1  0
 17 20  1  0
  9  4  1  0
M  END
$$$$

     RDKit          2D

 18 18  0  0  0  0  0  0  0  0999 V2000
    2.7760   -2.5981    0.0000 O   0  0  0  0  0  0  0  0  0  0  0  0
    3.5260   -1.2990    0.0000 C   0  0  0  0  0  0  0  0  0  0  0  0
    2.7760    0.0000    0.0000 N   0  0  0  0  0  0  0  0  0  0  0  0
    1.2760    0.0000    0.0000 C   0  0  0  0  0  0  0  0  0  0  0  0
    0.3943    1.2135    0.0000 N   0  0  0  0  0  0  0  0  0  0  0  0
   -1.0323    0.7500    0.0000 C   0  0  0  0  0  0  0  0  0  0  0  0
   -1.0323   -0.7500    0.0000 N   0  0  0  0  0  0  0  0  0  0  0  0
    0.3943   -1.2135    0.0000 N   0  0  0  0  0  0  0  0  0  0  0  0
    5.0260   -1.2990    0.0000 C   0  0  0  0  0  0  0  0  0  0  0  0
    5.0260   -2.7990    0.0000 F   0  0  0  0  0  0  0  0  0  0  0  0
    5.0260    0.2010    0.0000 F   0  0  0  0  0  0  0  0  0  0  0  0
    6.5260   -1.2990    0.0000 C   0  0  0  0  0  0  0  0  0  0  0  0
    6.5260    0.2010    0.0000 F   0  0  0  0  0  0  0  0  0  0  0  0
    6.5260   -2.7990    0.0000 F   0  0  0  0  0  0  0  0  0  0  0  0
    8.0260   -1.2990    0.0000 C   0  0  0  0  0  0  0  0  0  0  0  0
    9.5260   -1.2990    0.0000 F   0  0  0  0  0  0  0  0  0  0  0  0
    8.0260   -2.7990    0.0000 F   0  0  0  0  0  0  0  0  0  0  0  0
    8.0260    0.2010    0.0000 F   0  0  0  0  0  0  0  0  0  0  0  0
  1  2  2  0
  2  3  1  0
  3  4  1  0
  4  5  2  0
  5  6  1  0
  6  7  2  0
  7  8  1  0
  2  9  1  0
  9 10  1  0
  9 11  1  0
  9 12  1  0
 12 13  1  0
 12 14  1  0
 12 15  1  0
 15 16  1  0
 15 17  1  0
 15 18  1  0
  8  4  1  0
M  END
$$$$

     RDKit          2D

 24 24  0  0  0  0  0  0  0  0999 V2000
    5.2776   -0.5490    0.0000 O   0  0  0  0  0  0  0  0  0  0  0  0
    3.9786   -1.2990    0.0000 S   0  0  0  0  0  0  0  0  0  0  0  0
    3.2448   -1.6105    0.0000 O   0  0  0  0  0  0  0  0  0  0  0  0
    3.2286   -0.0000    0.0000 O   0  0  0  0  0  0  0  0  0  0  0  0
    3.9786    1.2990    0.0000 C   0  0  0  0  0  0  0  0  0  0  0  0
    3.1336    2.5384    0.0000 C   0  0  0  0  0  0  0  0  0  0  0  0
    3.5757    3.9718    0.0000 C   0  0  0  0  0  0  0  0  0  0  0  0
    4.9720    4.5198    0.0000 C   0  0  0  0  0  0  0  0  0  0  0  0
    6.2711    3.7698    0.0000 C   0  0  0  0  0  0  0  0  0  0  0  0
    6.4946    2.2865    0.0000 C   0  0  0  0  0  0  0  0  0  0  0  0
    5.4744    1.1869    0.0000 C   0  0  0  0  0  0  0  0  0  0  0  0
    4.7286   -2.5981    0.0000 C   0  0  0  0  0  0  0  0  0  0  0  0
    6.0276   -1.8481    0.0000 F   0  0  0  0  0  0  0  0  0  0  0  0
    5.4786   -3.8971    0.0000 F   0  0  0  0  0  0  0  0  0  0  0  0
    3.4295   -3.3481    0.0000 C   0  0  0  0  0  0  0  0  0  0  0  0
    4.1795   -4.6471    0.0000 F   0  0  0  0  0  0  0  0  0  0  0  0
    2.8965   -2.6407    0.0000 F   0  0  0  0  0  0  0  0  0  0  0  0
    2.1305   -4.0981    0.0000 C   0  0  0  0  0  0  0  0  0  0  0  0
    1.3805   -2.7990    0.0000 F   0  0  0  0  0  0  0  0  0  0  0  0
    2.8805   -5.3971    0.0000 F   0  0  0  0  0  0  0  0  0  0  0  0
    0.8315   -4.8481    0.0000 C   0  0  0  0  0  0  0  0  0  0  0  0
   -0.4676   -5.5981    0.0000 F   0  0  0  0  0  0  0  0  0  0  0  0
    0.0815   -3.5490    0.0000 F   0  0  0  0  0  0  0  0  0  0  0  0
    1.5815   -6.1471    0.0000 F   0  0  0  0  0  0  0  0  0  0  0  0
  1  2  2  0
  2  3  2  0
  2  4  1  0
  4  5  1  0
  5  6  2  0
  6  7  1  0
  7  8  1  0
  8  9  1  0
  9 10  1  0
 10 11  1  0
  2 12  1  0
 12 13  1  0
 12 14  1  0
 12 15  1  0
 15 16  1  0
 15 17  1  0
 15 18  1  0
 18 19  1  0
 18 20  1  0
 18 21  1  0
 21 22  1  0
 21 23  1  0
 21 24  1  0
 11  5  1  0
M  END
$$$$

     RDKit          2D

 22 23  0  0  0  0  0  0  0  0999 V2000
    3.7500    1.2990    0.0000 O   0  0  0  0  0  0  0  0  0  0  0  0
    3.0000    0.0000    0.0000 N   0  0  0  0  0  0  0  0  0  0  0  0
    3.7500   -1.2990    0.0000 O   0  0  0  0  0  0  0  0  0  0  0  0
    1.5000    0.0000    0.0000 C   0  0  0  0  0  0  0  0  0  0  0  0
    0.7500   -1.2990    0.0000 C   0  0  0  0  0  0  0  0  0  0  0  0
   -0.7500   -1.2990    0.0000 C   0  0  0  0  0  0  0  0  0  0  0  0
   -1.5000    0.0000    0.0000 C   0  0  0  0  0  0  0  0  0  0  0  0
   -2.9672    0.3119    0.0000 N   0  0  0  0  0  0  0  0  0  0  0  0
   -3.1240    1.8037    0.0000 C   0  0  0  0  0  0  0  0  0  0  0  0
   -4.4231    2.5537    0.0000 C   0  0  0  0  0  0  0  0  0  0  0  0
   -3.6731    3.8527    0.0000 F   0  0  0  0  0  0  0  0  0  0  0  0
   -5.1731    1.2546    0.0000 F   0  0  0  0  0  0  0  0  0  0  0  0
   -5.7221    3.3037    0.0000 C   0  0  0  0  0  0  0  0  0  0  0  0
   -6.4721    2.0046    0.0000 F   0  0  0  0  0  0  0  0  0  0  0  0
   -4.9721    4.6027    0.0000 F   0  0  0  0  0  0  0  0  0  0  0  0
   -7.0211    4.0537    0.0000 C   0  0  0  0  0  0  0  0  0  0  0  0
   -8.3202    4.8037    0.0000 F   0  0  0  0  0  0  0  0  0  0  0  0
   -6.2711    5.3527    0.0000 F   0  0  0  0  0  0  0  0  0  0  0  0
   -7.7711    2.7546    0.0000 F   0  0  0  0  0  0  0  0  0  0  0  0
   -1.7537    2.4138    0.0000 N   0  0  0  0  0  0  0  0  0  0  0  0
   -0.7500    1.2990    0.0000 C   0  0  0  0  0  0  0  0  0  0  0  0
    0.7500    1.2990    0.0000 C   0  0  0  0  0  0  0  0  0  0  0  0
  1  2  2  0
  2  3  1  0
  2  4  1  0
  4  5  2  0
  5  6  1  0
  6  7  2  0
  7  8  1  0
  8  9  2  0
  9 10  1  0
 10 11  1  0
 10 12  1  0
 10 13  1  0
 13 14  1  0
 13 15  1  0
 13 16  1  0
 16 17  1  0
 16 18  1  0
 16 19  1  0
  9 20  1  0
 20 21  1  0
 21 22  2  0
 22  4  1  0
 21  7  1  0
M  CHG  2   2   1   3  -1
M  END
$$$$

     RDKit          2D

 36 36  0  0  0  0  0  0  0  0999 V2000
    3.7500    1.2990    0.0000 O   0  0  0  0  0  0  0  0  0  0  0  0
    3.0000    0.0000    0.0000 C   0  0  0  0  0  0  0  0  0  0  0  0
    3.7500   -1.2990    0.0000 O   0  0  0  0  0  0  0  0  0  0  0  0
    5.2500   -1.2990    0.0000 C   0  0  0  0  0  0  0  0  0  0  0  0
    6.0000   -2.5981    0.0000 C   0  0  0  0  0  0  0  0  0  0  0  0
    7.5000   -2.5981    0.0000 C   0  0  0  0  0  0  0  0  0  0  0  0
    7.5000   -4.0981    0.0000 F   0  0  0  0  0  0  0  0  0  0  0  0
    7.5000   -1.0981    0.0000 F   0  0  0  0  0  0  0  0  0  0  0  0
    9.0000   -2.5981    0.0000 C   0  0  0  0  0  0  0  0  0  0  0  0
    9.0000   -1.0981    0.0000 F   0  0  0  0  0  0  0  0  0  0  0  0
    9.0000   -4.0981    0.0000 F   0  0  0  0  0  0  0  0  0  0  0  0
   10.5000   -2.5981    0.0000 C   0  0  0  0  0  0  0  0  0  0  0  0
   10.5000   -4.0981    0.0000 F   0  0  0  0  0  0  0  0  0  0  0  0
   10.5000   -1.0981    0.0000 F   0  0  0  0  0  0  0  0  0  0  0  0
   12.0000   -2.5981    0.0000 C   0  0  0  0  0  0  0  0  0  0  0  0
   12.0000   -1.0981    0.0000 F   0  0  0  0  0  0  0  0  0  0  0  0
   12.0000   -4.0981    0.0000 F   0  0  0  0  0  0  0  0  0  0  0  0
   13.5000   -2.5981    0.0000 C   0  0  0  0  0  0  0  0  0  0  0  0
   13.5000   -4.0981    0.0000 F   0  0  0  0  0  0  0  0  0  0  0  0
   13.5000   -1.0981    0.0000 F   0  0  0  0  0  0  0  0  0  0  0  0
   15.0000   -2.5981    0.0000 C   0  0  0  0  0  0  0  0  0  0  0  0
   15.0000   -1.0981    0.0000 F   0  0  0  0  0  0  0  0  0  0  0  0
   15.0000   -4.0981    0.0000 F   0  0  0  0  0  0  0  0  0  0  0  0
   16.5000   -2.5981    0.0000 C   0  0  0  0  0  0  0  0  0  0  0  0
   16.5000   -4.0981    0.0000 F   0  0  0  0  0  0  0  0  0  0  0  0
   16.5000   -1.0981    0.0000 F   0  0  0  0  0  0  0  0  0  0  0  0
   18.0000   -2.5981    0.0000 C   0  0  0  0  0  0  0  0  0  0  0  0
   19.5000   -2.5981    0.0000 F   0  0  0  0  0  0  0  0  0  0  0  0
   18.0000   -1.0981    0.0000 F   0  0  0  0  0  0  0  0  0  0  0  0
   18.0000   -4.0981    0.0000 F   0  0  0  0  0  0  0  0  0  0  0  0
    1.5000    0.0000    0.0000 C   0  0  0  0  0  0  0  0  0  0  0  0
    0.7500   -1.2990    0.0000 C   0  0  0  0  0  0  0  0  0  0  0  0
   -0.7500   -1.2990    0.0000 C   0  0  0  0  0  0  0  0  0  0  0  0
   -1.5000    0.0000    0.0000 C   0  0  0  0  0  0  0  0  0  0  0  0
   -0.7500    1.2990    0.0000 N   0  0  0  0  0  0  0  0  0  0  0  0
    0.7500    1.2990    0.0000 C   0  0  0  0  0  0  0  0  0  0  0  0
  1  2  2  0
  2  3  1  0
  3  4  1  0
  4  5  1  0
  5  6  1  0
  6  7  1  0
  6  8  1  0
  6  9  1  0
  9 10  1  0
  9 11  1  0
  9 12  1  0
 12 13  1  0
 12 14  1  0
 12 15  1  0
 15 16  1  0
 15 17  1  0
 15 18  1  0
 18 19  1  0
 18 20  1  0
 18 21  1  0
 21 22  1  0
 21 23  1  0
 21 24  1  0
 24 25  1  0
 24 26  1  0
 24 27  1  0
 27 28  1  0
 27 29  1  0
 27 30  1  0
  2 31  1  0
 31 32  2  0
 32 33  1  0
 33 34  2  0
 34 35  1  0
 35 36  2  0
 36 31  1  0
M  END
$$$$

     RDKit          2D

 21 21  0  0  0  0  0  0  0  0999 V2000
    3.0000   -2.5981    0.0000 O   0  0  0  0  0  0  0  0  0  0  0  0
    3.7500   -1.2990    0.0000 C   0  0  0  0  0  0  0  0  0  0  0  0
    3.0000    0.0000    0.0000 N   0  0  0  0  0  0  0  0  0  0  0  0
    1.5000    0.0000    0.0000 C   0  0  0  0  0  0  0  0  0  0  0  0
    0.7500   -1.2990    0.0000 C   0  0  0  0  0  0  0  0  0  0  0  0
    1.5000   -2.5981    0.0000 Cl  0  0  0  0  0  0  0  0  0  0  0  0
   -0.7500   -1.2990    0.0000 C   0  0  0  0  0  0  0  0  0  0  0  0
   -1.5000    0.0000    0.0000 C   0  0  0  0  0  0  0  0  0  0  0  0
   -0.7500    1.2990    0.0000 C   0  0  0  0  0  0  0  0  0  0  0  0
    0.7500    1.2990    0.0000 C   0  0  0  0  0  0  0  0  0  0  0  0
    1.5000    2.5981    0.0000 Cl  0  0  0  0  0  0  0  0  0  0  0  0
    5.2500   -1.2990    0.0000 C   0  0  0  0  0  0  0  0  0  0  0  0
    5.2500   -2.7990    0.0000 F   0  0  0  0  0  0  0  0  0  0  0  0
    5.2500    0.2010    0.0000 F   0  0  0  0  0  0  0  0  0  0  0  0
    6.7500   -1.2990    0.0000 C   0  0  0  0  0  0  0  0  0  0  0  0
    6.7500    0.2010    0.0000 F   0  0  0  0  0  0  0  0  0  0  0  0
    6.7500   -2.7990    0.0000 F   0  0  0  0  0  0  0  0  0  0  0  0
    8.2500   -1.2990    0.0000 C   0  0  0  0  0  0  0  0  0  0  0  0
    9.7500   -1.2990    0.0000 F   0  0  0  0  0  0  0  0  0  0  0  0
    8.2500   -2.7990    0.0000 F   0  0  0  0  0  0  0  0  0  0  0  0
    8.2500    0.2010    0.0000 F   0  0  0  0  0  0  0  0  0  0  0  0
  1  2  2  0
  2  3  1  0
  3  4  1  0
  4  5  2  0
  5  6  1  0
  5  7  1  0
  7  8  2  0
  8  9  1  0
  9 10  2  0
 10 11  1  0
  2 12  1  0
 12 13  1  0
 12 14  1  0
 12 15  1  0
 15 16  1  0
 15 17  1  0
 15 18  1  0
 18 19  1  0
 18 20  1  0
 18 21  1  0
 10  4  1  0
M  END
$$$$

     RDKit          2D

 21 21  0  0  0  0  0  0  0  0999 V2000
    3.0000   -2.5981    0.0000 O   0  0  0  0  0  0  0  0  0  0  0  0
    3.7500   -1.2990    0.0000 C   0  0  0  0  0  0  0  0  0  0  0  0
    3.0000    0.0000    0.0000 N   0  0  0  0  0  0  0  0  0  0  0  0
    1.5000    0.0000    0.0000 C   0  0  0  0  0  0  0  0  0  0  0  0
    0.7500   -1.2990    0.0000 C   0  0  0  0  0  0  0  0  0  0  0  0
   -0.7500   -1.2990    0.0000 C   0  0  0  0  0  0  0  0  0  0  0  0
   -1.5000   -2.5981    0.0000 Cl  0  0  0  0  0  0  0  0  0  0  0  0
   -1.5000    0.0000    0.0000 C   0  0  0  0  0  0  0  0  0  0  0  0
   -0.7500    1.2990    0.0000 C   0  0  0  0  0  0  0  0  0  0  0  0
    0.7500    1.2990    0.0000 C   0  0  0  0  0  0  0  0  0  0  0  0
    1.5000    2.5981    0.0000 Cl  0  0  0  0  0  0  0  0  0  0  0  0
    5.2500   -1.2990    0.0000 C   0  0  0  0  0  0  0  0  0  0  0  0
    5.2500   -2.7990    0.0000 F   0  0  0  0  0  0  0  0  0  0  0  0
    5.2500    0.2010    0.0000 F   0  0  0  0  0  0  0  0  0  0  0  0
    6.7500   -1.2990    0.0000 C   0  0  0  0  0  0  0  0  0  0  0  0
    6.7500    0.2010    0.0000 F   0  0  0  0  0  0  0  0  0  0  0  0
    6.7500   -2.7990    0.0000 F   0  0  0  0  0  0  0  0  0  0  0  0
    8.2500   -1.2990    0.0000 C   0  0  0  0  0  0  0  0  0  0  0  0
    9.7500   -1.2990    0.0000 F   0  0  0  0  0  0  0  0  0  0  0  0
    8.2500   -2.7990    0.0000 F   0  0  0  0  0  0  0  0  0  0  0  0
    8.2500    0.2010    0.0000 F   0  0  0  0  0  0  0  0  0  0  0  0
  1  2  2  0
  2  3  1  0
  3  4  1  0
  4  5  2  0
  5  6  1  0
  6  7  1  0
  6  8  2  0
  8  9  1  0
  9 10  2  0
 10 11  1  0
  2 12  1  0
 12 13  1  0
 12 14  1  0
 12 15  1  0
 15 16  1  0
 15 17  1  0
 15 18  1  0
 18 19  1  0
 18 20  1  0
 18 21  1  0
 10  4  1  0
M  END
$$$$

     RDKit          2D

 49 49  0  0  0  0  0  0  0  0999 V2000
    9.7500   -3.8971    0.0000 C   0  0  0  0  0  0  0  0  0  0  0  0
    8.2500   -3.8971    0.0000 C   0  0  0  0  0  0  0  0  0  0  0  0
    7.5000   -2.5981    0.0000 C   0  0  0  0  0  0  0  0  0  0  0  0
    6.0000   -2.5981    0.0000 C   0  0  0  0  0  0  0  0  0  0  0  0
    5.2500   -1.2990    0.0000 C   0  0  0  0  0  0  0  0  0  0  0  0
    3.7500   -1.2990    0.0000 C   0  0  0  0  0  0  0  0  0  0  0  0
    3.0000    0.0000    0.0000 O   0  0  0  0  0  0  0  0  0  0  0  0
    1.5000    0.0000    0.0000 C   0  0  0  0  0  0  0  0  0  0  0  0
    0.7500   -1.2990    0.0000 C   0  0  0  0  0  0  0  0  0  0  0  0
   -0.7500   -1.2990    0.0000 C   0  0  0  0  0  0  0  0  0  0  0  0
   -1.5000    0.0000    0.0000 C   0  0  0  0  0  0  0  0  0  0  0  0
   -3.0000    0.0000    0.0000 S   0  0  0  0  0  0  0  0  0  0  0  0
   -3.0000   -1.5000    0.0000 O   0  0  0  0  0  0  0  0  0  0  0  0
   -3.0000    1.5000    0.0000 O   0  0  0  0  0  0  0  0  0  0  0  0
   -4.5000    0.0000    0.0000 C   0  0  0  0  0  0  0  0  0  0  0  0
   -5.2500   -1.2990    0.0000 C   0  0  0  0  0  0  0  0  0  0  0  0
   -6.7500   -1.2990    0.0000 C   0  0  0  0  0  0  0  0  0  0  0  0
   -6.7500   -2.7990    0.0000 F   0  0  0  0  0  0  0  0  0  0  0  0
   -6.7500    0.2010    0.0000 F   0  0  0  0  0  0  0  0  0  0  0  0
   -8.2500   -1.2990    0.0000 C   0  0  0  0  0  0  0  0  0  0  0  0
   -8.2500    0.2010    0.0000 F   0  0  0  0  0  0  0  0  0  0  0  0
   -8.2500   -2.7990    0.0000 F   0  0  0  0  0  0  0  0  0  0  0  0
   -9.7500   -1.2990    0.0000 C   0  0  0  0  0  0  0  0  0  0  0  0
   -9.7500   -2.7990    0.0000 F   0  0  0  0  0  0  0  0  0  0  0  0
   -9.7500    0.2010    0.0000 F   0  0  0  0  0  0  0  0  0  0  0  0
  -11.2500   -1.2990    0.0000 C   0  0  0  0  0  0  0  0  0  0  0  0
  -11.2500    0.2010    0.0000 F   0  0  0  0  0  0  0  0  0  0  0  0
  -11.2500   -2.7990    0.0000 F   0  0  0  0  0  0  0  0  0  0  0  0
  -12.7500   -1.2990    0.0000 C   0  0  0  0  0  0  0  0  0  0  0  0
  -12.7500   -2.7990    0.0000 F   0  0  0  0  0  0  0  0  0  0  0  0
  -12.7500    0.2010    0.0000 F   0  0  0  0  0  0  0  0  0  0  0  0
  -14.2500   -1.2990    0.0000 C   0  0  0  0  0  0  0  0  0  0  0  0
  -14.2500    0.2010    0.0000 F   0  0  0  0  0  0  0  0  0  0  0  0
  -14.2500   -2.7990    0.0000 F   0  0  0  0  0  0  0  0  0  0  0  0
  -15.7500   -1.2990    0.0000 C   0  0  0  0  0  0  0  0  0  0  0  0
  -15.7500   -2.7990    0.0000 F   0  0  0  0  0  0  0  0  0  0  0  0
  -15.7500    0.2010    0.0000 F   0  0  0  0  0  0  0  0  0  0  0  0
  -17.2500   -1.2990    0.0000 C   0  0  0  0  0  0  0  0  0  0  0  0
  -17.2500    0.2010    0.0000 F   0  0  0  0  0  0  0  0  0  0  0  0
  -17.2500   -2.7990    0.0000 F   0  0  0  0  0  0  0  0  0  0  0  0
  -18.7500   -1.2990    0.0000 C   0  0  0  0  0  0  0  0  0  0  0  0
  -18.7500   -2.7990    0.0000 F   0  0  0  0  0  0  0  0  0  0  0  0
  -18.7500    0.2010    0.0000 F   0  0  0  0  0  0  0  0  0  0  0  0
  -20.2500   -1.2990    0.0000 C   0  0  0  0  0  0  0  0  0  0  0  0
  -21.7500   -1.2990    0.0000 F   0  0  0  0  0  0  0  0  0  0  0  0
  -20.2500    0.2010    0.0000 F   0  0  0  0  0  0  0  0  0  0  0  0
  -20.2500   -2.7990    0.0000 F   0  0  0  0  0  0  0  0  0  0  0  0
   -0.7500    1.2990    0.0000 C   0  0  0  0  0  0  0  0  0  0  0  0
    0.7500    1.2990    0.0000 C   0  0  0  0  0  0  0  0  0  0  0  0
  1  2  1  0
  2  3  1  0
  3  4  1  0
  4  5  1  0
  5  6  1  0
  6  7  1  0
  7  8  1  0
  8  9  2  0
  9 10  1  0
 10 11  2  0
 11 12  1  0
 12 13  2  0
 12 14  2  0
 12 15  1  0
 15 16  1  0
 16 17  1  0
 17 18  1  0
 17 19  1  0
 17 20  1  0
 20 21  1  0
 20 22  1  0
 20 23  1  0
 23 24  1  0
 23 25  1  0
 23 26  1  0
 26 27  1  0
 26 28  1  0
 26 29  1  0
 29 30  1  0
 29 31  1  0
 29 32  1  0
 32 33  1  0
 32 34  1  0
 32 35  1  0
 35 36  1  0
 35 37  1  0
 35 38  1  0
 38 39  1  0
 38 40  1  0
 38 41  1  0
 41 42  1  0
 41 43  1  0
 41 44  1  0
 44 45  1  0
 44 46  1  0
 44 47  1  0
 11 48  1  0
 48 49  2  0
 49  8  1  0
M  END
$$$$

     RDKit          2D

 40 40  0  0  0  0  0  0  0  0999 V2000
    5.2500   -1.2990    0.0000 C   0  0  0  0  0  0  0  0  0  0  0  0
    3.7500   -1.2990    0.0000 C   0  0  0  0  0  0  0  0  0  0  0  0
    3.0000   -2.5981    0.0000 O   0  0  0  0  0  0  0  0  0  0  0  0
    3.0000    0.0000    0.0000 O   0  0  0  0  0  0  0  0  0  0  0  0
    1.5000    0.0000    0.0000 C   0  0  0  0  0  0  0  0  0  0  0  0
    0.7500   -1.2990    0.0000 C   0  0  0  0  0  0  0  0  0  0  0  0
   -0.7500   -1.2990    0.0000 C   0  0  0  0  0  0  0  0  0  0  0  0
   -1.5000   -2.5981    0.0000 Cl  0  0  0  0  0  0  0  0  0  0  0  0
   -1.5000    0.0000    0.0000 C   0  0  0  0  0  0  0  0  0  0  0  0
   -0.7500    1.2990    0.0000 C   0  0  0  0  0  0  0  0  0  0  0  0
    0.7500    1.2990    0.0000 C   0  0  0  0  0  0  0  0  0  0  0  0
    1.5000    2.5981    0.0000 C   0  0  0  0  0  0  0  0  0  0  0  0
    3.0000    2.5981    0.0000 C   0  0  0  0  0  0  0  0  0  0  0  0
    3.7500    1.2990    0.0000 Cl  0  0  0  0  0  0  0  0  0  0  0  0
    3.7500    3.8971    0.0000 C   0  0  0  0  0  0  0  0  0  0  0  0
    5.2500    3.8971    0.0000 C   0  0  0  0  0  0  0  0  0  0  0  0
    5.2500    5.3971    0.0000 F   0  0  0  0  0  0  0  0  0  0  0  0
    5.2500    2.3971    0.0000 F   0  0  0  0  0  0  0  0  0  0  0  0
    6.7500    3.8971    0.0000 C   0  0  0  0  0  0  0  0  0  0  0  0
    6.7500    2.3971    0.0000 F   0  0  0  0  0  0  0  0  0  0  0  0
    6.7500    5.3971    0.0000 F   0  0  0  0  0  0  0  0  0  0  0  0
    8.2500    3.8971    0.0000 C   0  0  0  0  0  0  0  0  0  0  0  0
    8.2500    5.3971    0.0000 F   0  0  0  0  0  0  0  0  0  0  0  0
    8.2500    2.3971    0.0000 F   0  0  0  0  0  0  0  0  0  0  0  0
    9.7500    3.8971    0.0000 C   0  0  0  0  0  0  0  0  0  0  0  0
    9.7500    2.3971    0.0000 F   0  0  0  0  0  0  0  0  0  0  0  0
    9.7500    5.3971    0.0000 F   0  0  0  0  0  0  0  0  0  0  0  0
   11.2500    3.8971    0.0000 C   0  0  0  0  0  0  0  0  0  0  0  0
   11.2500    5.3971    0.0000 F   0  0  0  0  0  0  0  0  0  0  0  0
   11.2500    2.3971    0.0000 F   0  0  0  0  0  0  0  0  0  0  0  0
   12.7500    3.8971    0.0000 C   0  0  0  0  0  0  0  0  0  0  0  0
   12.7500    2.3971    0.0000 F   0  0  0  0  0  0  0  0  0  0  0  0
   12.7500    5.3971    0.0000 F   0  0  0  0  0  0  0  0  0  0  0  0
   14.2500    3.8971    0.0000 C   0  0  0  0  0  0  0  0  0  0  0  0
   14.2500    5.3971    0.0000 F   0  0  0  0  0  0  0  0  0  0  0  0
   14.2500    2.3971    0.0000 F   0  0  0  0  0  0  0  0  0  0  0  0
   15.7500    3.8971    0.0000 C   0  0  0  0  0  0  0  0  0  0  0  0
   17.2500    3.8971    0.0000 F   0  0  0  0  0  0  0  0  0  0  0  0
   15.7500    2.3971    0.0000 F   0  0  0  0  0  0  0  0  0  0  0  0
   15.7500    5.3971    0.0000 F   0  0  0  0  0  0  0  0  0  0  0  0
  1  2  1  0
  2  3  2  0
  2  4  1  0
  4  5  1  0
  5  6  2  0
  6  7  1  0
  7  8  1  0
  7  9  2  0
  9 10  1  0
 10 11  2  0
 11 12  1  0
 12 13  1  0
 13 14  1  0
 13 15  1  0
 15 16  1  0
 16 17  1  0
 16 18  1  0
 16 19  1  0
 19 20  1  0
 19 21  1  0
 19 22  1  0
 22 23  1  0
 22 24  1  0
 22 25  1  0
 25 26  1  0
 25 27  1  0
 25 28  1  0
 28 29  1  0
 28 30  1  0
 28 31  1  0
 31 32  1  0
 31 33  1  0
 31 34  1  0
 34 35  1  0
 34 36  1  0
 34 37  1  0
 37 38  1  0
 37 39  1  0
 37 40  1  0
 11  5  1  0
M  END
$$$$

     RDKit          2D

 31 30  0  0  0  0  0  0  0  0999 V2000
   -0.0000    0.0000    0.0000 C   0  0  0  0  0  0  0  0  0  0  0  0
    1.2990    0.7500    0.0000 O   0  0  0  0  0  0  0  0  0  0  0  0
    2.5981   -0.0000    0.0000 C   0  0  0  0  0  0  0  0  0  0  0  0
    3.8971    0.7500    0.0000 C   0  0  0  0  0  0  0  0  0  0  0  0
    5.1962    0.0000    0.0000 N   0  0  0  0  0  0  0  0  0  0  0  0
    6.4952    0.7500    0.0000 C   0  0  0  0  0  0  0  0  0  0  0  0
    7.7942    0.0000    0.0000 C   0  0  0  0  0  0  0  0  0  0  0  0
    9.0933    0.7500    0.0000 O   0  0  0  0  0  0  0  0  0  0  0  0
   10.3923   -0.0000    0.0000 C   0  0  0  0  0  0  0  0  0  0  0  0
    5.1962   -1.5000    0.0000 S   0  0  0  0  0  0  0  0  0  0  0  0
    4.4049   -1.4028    0.0000 O   0  0  0  0  0  0  0  0  0  0  0  0
    6.6962   -1.5000    0.0000 O   0  0  0  0  0  0  0  0  0  0  0  0
    5.1962   -3.0000    0.0000 C   0  0  0  0  0  0  0  0  0  0  0  0
    6.6962   -3.0000    0.0000 F   0  0  0  0  0  0  0  0  0  0  0  0
    5.1962   -4.5000    0.0000 F   0  0  0  0  0  0  0  0  0  0  0  0
    3.6962   -3.0000    0.0000 C   0  0  0  0  0  0  0  0  0  0  0  0
    3.5882   -2.1209    0.0000 F   0  0  0  0  0  0  0  0  0  0  0  0
    3.6962   -4.5000    0.0000 F   0  0  0  0  0  0  0  0  0  0  0  0
    2.1962   -3.0000    0.0000 C   0  0  0  0  0  0  0  0  0  0  0  0
    2.1962   -1.5000    0.0000 F   0  0  0  0  0  0  0  0  0  0  0  0
    2.1962   -4.5000    0.0000 F   0  0  0  0  0  0  0  0  0  0  0  0
    0.6962   -3.0000    0.0000 C   0  0  0  0  0  0  0  0  0  0  0  0
    0.6962   -4.5000    0.0000 F   0  0  0  0  0  0  0  0  0  0  0  0
    0.6962   -1.5000    0.0000 F   0  0  0  0  0  0  0  0  0  0  0  0
   -0.8038   -3.0000    0.0000 C   0  0  0  0  0  0  0  0  0  0  0  0
   -0.8038   -1.5000    0.0000 F   0  0  0  0  0  0  0  0  0  0  0  0
   -0.8038   -4.5000    0.0000 F   0  0  0  0  0  0  0  0  0  0  0  0
   -2.3038   -3.0000    0.0000 C   0  0  0  0  0  0  0  0  0  0  0  0
   -3.8038   -3.0000    0.0000 F   0  0  0  0  0  0  0  0  0  0  0  0
   -2.3038   -4.5000    0.0000 F   0  0  0  0  0  0  0  0  0  0  0  0
   -2.3038   -1.5000    0.0000 F   0  0  0  0  0  0  0  0  0  0  0  0
  1  2  1  0
  2  3  1  0
  3  4  1  0
  4  5  1  0
  5  6  1  0
  6  7  1  0
  7  8  1  0
  8  9  1  0
  5 10  1  0
 10 11  2  0
 10 12  2  0
 10 13  1  0
 13 14  1  0
 13 15  1  0
 13 16  1  0
 16 17  1  0
 16 18  1  0
 16 19  1  0
 19 20  1  0
 19 21  1  0
 19 22  1  0
 22 23  1  0
 22 24  1  0
 22 25  1  0
 25 26  1  0
 25 27  1  0
 25 28  1  0
 28 29  1  0
 28 30  1  0
 28 31  1  0
M  END
$$$$

     RDKit          2D

 31 31  0  0  0  0  0  0  0  0999 V2000
    3.0000    0.0000    0.0000 C   0  0  0  0  0  0  0  0  0  0  0  0
    1.5000    0.0000    0.0000 C   0  0  0  0  0  0  0  0  0  0  0  0
    0.7500   -1.2990    0.0000 C   0  0  0  0  0  0  0  0  0  0  0  0
   -0.7500   -1.2990    0.0000 C   0  0  0  0  0  0  0  0  0  0  0  0
   -1.5000    0.0000    0.0000 C   0  0  0  0  0  0  0  0  0  0  0  0
   -3.0000    0.0000    0.0000 C   0  0  0  0  0  0  0  0  0  0  0  0
   -3.7500    1.2990    0.0000 N   0  0  0  0  0  0  0  0  0  0  0  0
   -5.2500    1.2990    0.0000 N   0  0  0  0  0  0  0  0  0  0  0  0
   -6.0000    2.5981    0.0000 C   0  0  0  0  0  0  0  0  0  0  0  0
   -5.2500    3.8971    0.0000 O   0  0  0  0  0  0  0  0  0  0  0  0
   -7.5000    2.5981    0.0000 C   0  0  0  0  0  0  0  0  0  0  0  0
   -7.5000    4.0981    0.0000 F   0  0  0  0  0  0  0  0  0  0  0  0
   -7.5000    1.0981    0.0000 F   0  0  0  0  0  0  0  0  0  0  0  0
   -9.0000    2.5981    0.0000 C   0  0  0  0  0  0  0  0  0  0  0  0
   -9.0000    1.0981    0.0000 F   0  0  0  0  0  0  0  0  0  0  0  0
   -9.0000    4.0981    0.0000 F   0  0  0  0  0  0  0  0  0  0  0  0
  -10.5000    2.5981    0.0000 C   0  0  0  0  0  0  0  0  0  0  0  0
  -10.5000    4.0981    0.0000 F   0  0  0  0  0  0  0  0  0  0  0  0
  -10.5000    1.0981    0.0000 F   0  0  0  0  0  0  0  0  0  0  0  0
  -12.0000    2.5981    0.0000 C   0  0  0  0  0  0  0  0  0  0  0  0
  -12.0000    1.0981    0.0000 F   0  0  0  0  0  0  0  0  0  0  0  0
  -12.0000    4.0981    0.0000 F   0  0  0  0  0  0  0  0  0  0  0  0
  -13.5000    2.5981    0.0000 C   0  0  0  0  0  0  0  0  0  0  0  0
  -13.5000    4.0981    0.0000 F   0  0  0  0  0  0  0  0  0  0  0  0
  -13.5000    1.0981    0.0000 F   0  0  0  0  0  0  0  0  0  0  0  0
  -15.0000    2.5981    0.0000 C   0  0  0  0  0  0  0  0  0  0  0  0
  -16.5000    2.5981    0.0000 F   0  0  0  0  0  0  0  0  0  0  0  0
  -15.0000    1.0981    0.0000 F   0  0  0  0  0  0  0  0  0  0  0  0
  -15.0000    4.0981    0.0000 F   0  0  0  0  0  0  0  0  0  0  0  0
   -0.7500    1.2990    0.0000 C   0  0  0  0  0  0  0  0  0  0  0  0
    0.7500    1.2990    0.0000 C   0  0  0  0  0  0  0  0  0  0  0  0
  1  2  1  0
  2  3  2  0
  3  4  1  0
  4  5  2  0
  5  6  1  0
  6  7  2  3
  7  8  1  0
  8  9  1  0
  9 10  2  0
  9 11  1  0
 11 12  1  0
 11 13  1  0
 11 14  1  0
 14 15  1  0
 14 16  1  0
 14 17  1  0
 17 18  1  0
 17 19  1  0
 17 20  1  0
 20 21  1  0
 20 22  1  0
 20 23  1  0
 23 24  1  0
 23 25  1  0
 23 26  1  0
 26 27  1  0
 26 28  1  0
 26 29  1  0
  5 30  1  0
 30 31  2  0
 31  2  1  0
M  END
$$$$

     RDKit          2D

 58 61  0  0  0  0  0  0  0  0999 V2000
   11.7760    0.0000    0.0000 F   0  0  0  0  0  0  0  0  0  0  0  0
   10.2760    0.0000    0.0000 C   0  0  0  0  0  0  0  0  0  0  0  0
   10.2760    1.5000    0.0000 F   0  0  0  0  0  0  0  0  0  0  0  0
   10.2760   -1.5000    0.0000 F   0  0  0  0  0  0  0  0  0  0  0  0
    8.7760    0.0000    0.0000 C   0  0  0  0  0  0  0  0  0  0  0  0
    8.7760   -1.5000    0.0000 F   0  0  0  0  0  0  0  0  0  0  0  0
    8.7760    1.5000    0.0000 F   0  0  0  0  0  0  0  0  0  0  0  0
    7.2760    0.0000    0.0000 C   0  0  0  0  0  0  0  0  0  0  0  0
    7.2760    1.5000    0.0000 F   0  0  0  0  0  0  0  0  0  0  0  0
    7.2760   -1.5000    0.0000 F   0  0  0  0  0  0  0  0  0  0  0  0
    5.7760    0.0000    0.0000 C   0  0  0  0  0  0  0  0  0  0  0  0
    5.7760    1.5000    0.0000 F   0  0  0  0  0  0  0  0  0  0  0  0
    5.7760   -1.5000    0.0000 F   0  0  0  0  0  0  0  0  0  0  0  0
    4.2760    0.0000    0.0000 C   0  0  0  0  0  0  0  0  0  0  0  0
    4.2760   -1.5000    0.0000 F   0  0  0  0  0  0  0  0  0  0  0  0
    4.2760    1.5000    0.0000 F   0  0  0  0  0  0  0  0  0  0  0  0
    2.7760    0.0000    0.0000 C   0  0  0  0  0  0  0  0  0  0  0  0
    2.7760    1.5000    0.0000 F   0  0  0  0  0  0  0  0  0  0  0  0
    2.7760   -1.5000    0.0000 F   0  0  0  0  0  0  0  0  0  0  0  0
    1.2760    0.0000    0.0000 C   0  0  0  0  0  0  0  0  0  0  0  0
    0.3943    1.2135    0.0000 C   0  0  0  0  0  0  0  0  0  0  0  0
   -1.0323    0.7500    0.0000 C   0  0  0  0  0  0  0  0  0  0  0  0
   -1.0323   -0.7500    0.0000 C   0  0  0  0  0  0  0  0  0  0  0  0
   -2.2458   -1.6317    0.0000 C   0  0  0  0  0  0  0  0  0  0  0  0
   -2.2458   -3.1317    0.0000 C   0  0  0  0  0  0  0  0  0  0  0  0
   -3.6724   -3.5952    0.0000 C   0  0  0  0  0  0  0  0  0  0  0  0
   -4.5541   -2.3817    0.0000 C   0  0  0  0  0  0  0  0  0  0  0  0
   -6.0541   -2.3817    0.0000 C   0  0  0  0  0  0  0  0  0  0  0  0
   -6.9358   -3.5952    0.0000 C   0  0  0  0  0  0  0  0  0  0  0  0
   -8.3623   -3.1317    0.0000 C   0  0  0  0  0  0  0  0  0  0  0  0
   -8.3623   -1.6317    0.0000 C   0  0  0  0  0  0  0  0  0  0  0  0
   -9.5759   -0.7500    0.0000 C   0  0  0  0  0  0  0  0  0  0  0  0
  -11.0024   -1.2135    0.0000 C   0  0  0  0  0  0  0  0  0  0  0  0
  -11.8841   -0.0000    0.0000 C   0  0  0  0  0  0  0  0  0  0  0  0
  -11.0024    1.2135    0.0000 C   0  0  0  0  0  0  0  0  0  0  0  0
  -11.4660    2.6401    0.0000 C   0  0  0  0  0  0  0  0  0  0  0  0
  -12.8926    2.1766    0.0000 F   0  0  0  0  0  0  0  0  0  0  0  0
  -10.0394    3.1036    0.0000 F   0  0  0  0  0  0  0  0  0  0  0  0
  -11.9295    4.0667    0.0000 C   0  0  0  0  0  0  0  0  0  0  0  0
  -10.5029    4.5302    0.0000 F   0  0  0  0  0  0  0  0  0  0  0  0
  -13.3561    3.6032    0.0000 F   0  0  0  0  0  0  0  0  0  0  0  0
  -12.3930    5.4933    0.0000 C   0  0  0  0  0  0  0  0  0  0  0  0
  -13.8196    5.0298    0.0000 F   0  0  0  0  0  0  0  0  0  0  0  0
  -10.9664    5.9568    0.0000 F   0  0  0  0  0  0  0  0  0  0  0  0
  -12.8565    6.9199    0.0000 C   0  0  0  0  0  0  0  0  0  0  0  0
  -14.2831    6.4563    0.0000 F   0  0  0  0  0  0  0  0  0  0  0  0
  -11.4300    7.3834    0.0000 F   0  0  0  0  0  0  0  0  0  0  0  0
  -13.3201    8.3464    0.0000 C   0  0  0  0  0  0  0  0  0  0  0  0
  -11.8935    8.8100    0.0000 F   0  0  0  0  0  0  0  0  0  0  0  0
  -14.7467    7.8829    0.0000 F   0  0  0  0  0  0  0  0  0  0  0  0
  -13.7836    9.7730    0.0000 C   0  0  0  0  0  0  0  0  0  0  0  0
  -14.2471   11.1996    0.0000 F   0  0  0  0  0  0  0  0  0  0  0  0
  -15.2102    9.3095    0.0000 F   0  0  0  0  0  0  0  0  0  0  0  0
  -12.3570   10.2366    0.0000 F   0  0  0  0  0  0  0  0  0  0  0  0
   -9.5759    0.7500    0.0000 S   0  0  0  0  0  0  0  0  0  0  0  0
   -6.9358   -1.1682    0.0000 S   0  0  0  0  0  0  0  0  0  0  0  0
   -3.6724   -1.1682    0.0000 S   0  0  0  0  0  0  0  0  0  0  0  0
    0.3943   -1.2135    0.0000 S   0  0  0  0  0  0  0  0  0  0  0  0
  1  2  1  0
  2  3  1  0
  2  4  1  0
  2  5  1  0
  5  6  1  0
  5  7  1  0
  5  8  1  0
  8  9  1  0
  8 10  1  0
  8 11  1  0
 11 12  1  0
 11 13  1  0
 11 14  1  0
 14 15  1  0
 14 16  1  0
 14 17  1  0
 17 18  1  0
 17 19  1  0
 17 20  1  0
 20 21  2  0
 21 22  1  0
 22 23  2  0
 23 24  1  0
 24 25  2  0
 25 26  1  0
 26 27  2  0
 27 28  1  0
 28 29  2  0
 29 30  1  0
 30 31  2  0
 31 32  1  0
 32 33  2  0
 33 34  1  0
 34 35  2  0
 35 36  1  0
 36 37  1  0
 36 38  1  0
 36 39  1  0
 39 40  1  0
 39 41  1  0
 39 42  1  0
 42 43  1  0
 42 44  1  0
 42 45  1  0
 45 46  1  0
 45 47  1  0
 45 48  1  0
 48 49  1  0
 48 50  1  0
 48 51  1  0
 51 52  1  0
 51 53  1  0
 51 54  1  0
 35 55  1  0
 31 56  1  0
 27 57  1  0
 23 58  1  0
 58 20  1  0
 57 24  1  0
 56 28  1  0
 55 32  1  0
M  END
$$$$

     RDKit          2D

 37 37  0  0  0  0  0  0  0  0999 V2000
    3.0000   -2.5981    0.0000 O   0  0  0  0  0  0  0  0  0  0  0  0
    3.7500   -1.2990    0.0000 C   0  0  0  0  0  0  0  0  0  0  0  0
    3.0000    0.0000    0.0000 N   0  0  0  0  0  0  0  0  0  0  0  0
    1.5000    0.0000    0.0000 C   0  0  0  0  0  0  0  0  0  0  0  0
    0.7500   -1.2990    0.0000 C   0  0  0  0  0  0  0  0  0  0  0  0
   -0.7500   -1.2990    0.0000 C   0  0  0  0  0  0  0  0  0  0  0  0
   -1.5000    0.0000    0.0000 C   0  0  0  0  0  0  0  0  0  0  0  0
   -3.0000    0.0000    0.0000 N   0  0  0  0  0  0  0  0  0  0  0  0
   -3.7500   -1.2990    0.0000 O   0  0  0  0  0  0  0  0  0  0  0  0
   -3.7500    1.2990    0.0000 O   0  0  0  0  0  0  0  0  0  0  0  0
   -0.7500    1.2990    0.0000 C   0  0  0  0  0  0  0  0  0  0  0  0
    0.7500    1.2990    0.0000 C   0  0  0  0  0  0  0  0  0  0  0  0
    5.2500   -1.2990    0.0000 C   0  0  0  0  0  0  0  0  0  0  0  0
    5.2500   -2.7990    0.0000 F   0  0  0  0  0  0  0  0  0  0  0  0
    5.2500    0.2010    0.0000 F   0  0  0  0  0  0  0  0  0  0  0  0
    6.7500   -1.2990    0.0000 C   0  0  0  0  0  0  0  0  0  0  0  0
    6.7500    0.2010    0.0000 F   0  0  0  0  0  0  0  0  0  0  0  0
    6.7500   -2.7990    0.0000 F   0  0  0  0  0  0  0  0  0  0  0  0
    8.2500   -1.2990    0.0000 C   0  0  0  0  0  0  0  0  0  0  0  0
    8.2500   -2.7990    0.0000 F   0  0  0  0  0  0  0  0  0  0  0  0
    8.2500    0.2010    0.0000 F   0  0  0  0  0  0  0  0  0  0  0  0
    9.7500   -1.2990    0.0000 C   0  0  0  0  0  0  0  0  0  0  0  0
    9.7500    0.2010    0.0000 F   0  0  0  0  0  0  0  0  0  0  0  0
    9.7500   -2.7990    0.0000 F   0  0  0  0  0  0  0  0  0  0  0  0
   11.2500   -1.2990    0.0000 C   0  0  0  0  0  0  0  0  0  0  0  0
   11.2500   -2.7990    0.0000 F   0  0  0  0  0  0  0  0  0  0  0  0
   11.2500    0.2010    0.0000 F   0  0  0  0  0  0  0  0  0  0  0  0
   12.7500   -1.2990    0.0000 C   0  0  0  0  0  0  0  0  0  0  0  0
   12.7500    0.2010    0.0000 F   0  0  0  0  0  0  0  0  0  0  0  0
   12.7500   -2.7990    0.0000 F   0  0  0  0  0  0  0  0  0  0  0  0
   14.2500   -1.2990    0.0000 C   0  0  0  0  0  0  0  0  0  0  0  0
   14.2500   -2.7990    0.0000 F   0  0  0  0  0  0  0  0  0  0  0  0
   14.2500    0.2010    0.0000 F   0  0  0  0  0  0  0  0  0  0  0  0
   15.7500   -1.2990    0.0000 C   0  0  0  0  0  0  0  0  0  0  0  0
   17.2500   -1.2990    0.0000 F   0  0  0  0  0  0  0  0  0  0  0  0
   15.7500    0.2010    0.0000 F   0  0  0  0  0  0  0  0  0  0  0  0
   15.7500   -2.7990    0.0000 F   0  0  0  0  0  0  0  0  0  0  0  0
  1  2  2  0
  2  3  1  0
  3  4  1  0
  4  5  2  0
  5  6  1  0
  6  7  2  0
  7  8  1  0
  8  9  2  0
  8 10  1  0
  7 11  1  0
 11 12  2  0
  2 13  1  0
 13 14  1  0
 13 15  1  0
 13 16  1  0
 16 17  1  0
 16 18  1  0
 16 19  1  0
 19 20  1  0
 19 21  1  0
 19 22  1  0
 22 23  1  0
 22 24  1  0
 22 25  1  0
 25 26  1  0
 25 27  1  0
 25 28  1  0
 28 29  1  0
 28 30  1  0
 28 31  1  0
 31 32  1  0
 31 33  1  0
 31 34  1  0
 34 35  1  0
 34 36  1  0
 34 37  1  0
 12  4  1  0
M  CHG  2   8   1  10  -1
M  END
$$$$

     RDKit          2D

 24 24  0  0  0  0  0  0  0  0999 V2000
    3.5260   -3.8971    0.0000 O   0  0  0  0  0  0  0  0  0  0  0  0
    2.7760   -2.5981    0.0000 C   0  0  0  0  0  0  0  0  0  0  0  0
    3.5260   -1.2990    0.0000 N   0  0  0  0  0  0  0  0  0  0  0  0
    5.0260   -1.2990    0.0000 S   0  0  0  0  0  0  0  0  0  0  0  0
    5.0260   -2.7990    0.0000 O   0  0  0  0  0  0  0  0  0  0  0  0
    4.9288   -0.5078    0.0000 O   0  0  0  0  0  0  0  0  0  0  0  0
    6.5260   -1.2990    0.0000 C   0  0  0  0  0  0  0  0  0  0  0  0
    6.5260   -2.7990    0.0000 F   0  0  0  0  0  0  0  0  0  0  0  0
    8.0260   -1.2990    0.0000 F   0  0  0  0  0  0  0  0  0  0  0  0
    6.5260    0.2010    0.0000 C   0  0  0  0  0  0  0  0  0  0  0  0
    5.6468    0.3089    0.0000 F   0  0  0  0  0  0  0  0  0  0  0  0
    8.0260    0.2010    0.0000 F   0  0  0  0  0  0  0  0  0  0  0  0
    6.5260    1.7010    0.0000 C   0  0  0  0  0  0  0  0  0  0  0  0
    8.0260    1.7010    0.0000 F   0  0  0  0  0  0  0  0  0  0  0  0
    5.0260    1.7010    0.0000 F   0  0  0  0  0  0  0  0  0  0  0  0
    6.5260    3.2010    0.0000 C   0  0  0  0  0  0  0  0  0  0  0  0
    6.5260    4.7010    0.0000 F   0  0  0  0  0  0  0  0  0  0  0  0
    8.0260    3.2010    0.0000 F   0  0  0  0  0  0  0  0  0  0  0  0
    5.0260    3.2010    0.0000 F   0  0  0  0  0  0  0  0  0  0  0  0
    1.2760   -2.5981    0.0000 C   0  0  0  0  0  0  0  0  0  0  0  0
    0.3943   -3.8116    0.0000 C   0  0  0  0  0  0  0  0  0  0  0  0
   -1.0323   -3.3481    0.0000 C   0  0  0  0  0  0  0  0  0  0  0  0
   -1.0323   -1.8481    0.0000 C   0  0  0  0  0  0  0  0  0  0  0  0
    0.3943   -1.3846    0.0000 C   0  0  0  0  0  0  0  0  0  0  0  0
  1  2  2  0
  2  3  1  0
  3  4  1  0
  4  5  2  0
  4  6  2  0
  4  7  1  0
  7  8  1  0
  7  9  1  0
  7 10  1  0
 10 11  1  0
 10 12  1  0
 10 13  1  0
 13 14  1  0
 13 15  1  0
 13 16  1  0
 16 17  1  0
 16 18  1  0
 16 19  1  0
  2 20  1  0
 20 21  1  0
 21 22  2  0
 22 23  1  0
 23 24  1  0
 24 20  1  0
M  END
$$$$

     RDKit          2D

 42 42  0  0  0  0  0  0  0  0999 V2000
    3.7500   -1.2990    0.0000 C   0  0  0  0  0  0  0  0  0  0  0  0
    3.0000    0.0000    0.0000 O   0  0  0  0  0  0  0  0  0  0  0  0
    1.5000    0.0000    0.0000 C   0  0  0  0  0  0  0  0  0  0  0  0
    0.7500   -1.2990    0.0000 C   0  0  0  0  0  0  0  0  0  0  0  0
   -0.7500   -1.2990    0.0000 C   0  0  0  0  0  0  0  0  0  0  0  0
   -1.5000   -2.5981    0.0000 C   0  0  0  0  0  0  0  0  0  0  0  0
   -3.0000   -2.5981    0.0000 O   0  0  0  0  0  0  0  0  0  0  0  0
   -1.5000    0.0000    0.0000 C   0  0  0  0  0  0  0  0  0  0  0  0
   -3.0000    0.0000    0.0000 N   0  0  0  0  0  0  0  0  0  0  0  0
   -3.7500   -1.2990    0.0000 O   0  0  0  0  0  0  0  0  0  0  0  0
   -3.7500    1.2990    0.0000 O   0  0  0  0  0  0  0  0  0  0  0  0
   -0.7500    1.2990    0.0000 C   0  0  0  0  0  0  0  0  0  0  0  0
    0.7500    1.2990    0.0000 C   0  0  0  0  0  0  0  0  0  0  0  0
    1.5000    2.5981    0.0000 O   0  0  0  0  0  0  0  0  0  0  0  0
    0.7500    3.8971    0.0000 C   0  0  0  0  0  0  0  0  0  0  0  0
    1.5000    5.1962    0.0000 C   0  0  0  0  0  0  0  0  0  0  0  0
    0.7500    6.4952    0.0000 C   0  0  0  0  0  0  0  0  0  0  0  0
    1.5000    7.7942    0.0000 C   0  0  0  0  0  0  0  0  0  0  0  0
    0.2010    8.5442    0.0000 F   0  0  0  0  0  0  0  0  0  0  0  0
    2.7990    7.0442    0.0000 F   0  0  0  0  0  0  0  0  0  0  0  0
    2.2500    9.0933    0.0000 C   0  0  0  0  0  0  0  0  0  0  0  0
    3.5490    8.3433    0.0000 F   0  0  0  0  0  0  0  0  0  0  0  0
    0.9510    9.8433    0.0000 F   0  0  0  0  0  0  0  0  0  0  0  0
    3.0000   10.3923    0.0000 C   0  0  0  0  0  0  0  0  0  0  0  0
    1.7010   11.1423    0.0000 F   0  0  0  0  0  0  0  0  0  0  0  0
    4.2990    9.6423    0.0000 F   0  0  0  0  0  0  0  0  0  0  0  0
    3.7500   11.6913    0.0000 C   0  0  0  0  0  0  0  0  0  0  0  0
    5.0490   10.9413    0.0000 F   0  0  0  0  0  0  0  0  0  0  0  0
    2.4510   12.4413    0.0000 F   0  0  0  0  0  0  0  0  0  0  0  0
    4.5000   12.9904    0.0000 C   0  0  0  0  0  0  0  0  0  0  0  0
    3.2010   13.7404    0.0000 F   0  0  0  0  0  0  0  0  0  0  0  0
    5.7990   12.2404    0.0000 F   0  0  0  0  0  0  0  0  0  0  0  0
    5.2500   14.2894    0.0000 C   0  0  0  0  0  0  0  0  0  0  0  0
    6.5490   13.5394    0.0000 F   0  0  0  0  0  0  0  0  0  0  0  0
    3.9510   15.0394    0.0000 F   0  0  0  0  0  0  0  0  0  0  0  0
    6.0000   15.5885    0.0000 C   0  0  0  0  0  0  0  0  0  0  0  0
    4.7010   16.3385    0.0000 F   0  0  0  0  0  0  0  0  0  0  0  0
    7.2990   14.8385    0.0000 F   0  0  0  0  0  0  0  0  0  0  0  0
    6.7500   16.8875    0.0000 C   0  0  0  0  0  0  0  0  0  0  0  0
    7.5000   18.1865    0.0000 F   0  0  0  0  0  0  0  0  0  0  0  0
    8.0490   16.1375    0.0000 F   0  0  0  0  0  0  0  0  0  0  0  0
    5.4510   17.6375    0.0000 F   0  0  0  0  0  0  0  0  0  0  0  0
  1  2  1  0
  2  3  1  0
  3  4  2  0
  4  5  1  0
  5  6  1  0
  6  7  2  0
  5  8  2  0
  8  9  1  0
  9 10  2  0
  9 11  1  0
  8 12  1  0
 12 13  2  0
 13 14  1  0
 14 15  1  0
 15 16  1  0
 16 17  1  0
 17 18  1  0
 18 19  1  0
 18 20  1  0
 18 21  1  0
 21 22  1  0
 21 23  1  0
 21 24  1  0
 24 25  1  0
 24 26  1  0
 24 27  1  0
 27 28  1  0
 27 29  1  0
 27 30  1  0
 30 31  1  0
 30 32  1  0
 30 33  1  0
 33 34  1  0
 33 35  1  0
 33 36  1  0
 36 37  1  0
 36 38  1  0
 36 39  1  0
 39 40  1  0
 39 41  1  0
 39 42  1  0
 13  3  1  0
M  CHG  2   9   1  11  -1
M  END
$$$$

     RDKit          2D

 40 40  0  0  0  0  0  0  0  0999 V2000
    5.2500   -3.8971    0.0000 C   0  0  0  0  0  0  0  0  0  0  0  0
    6.0000   -2.5981    0.0000 C   0  0  0  0  0  0  0  0  0  0  0  0
    7.5000   -2.5981    0.0000 C   0  0  0  0  0  0  0  0  0  0  0  0
    8.2500   -1.2990    0.0000 C   0  0  0  0  0  0  0  0  0  0  0  0
    7.5000    0.0000    0.0000 O   0  0  0  0  0  0  0  0  0  0  0  0
    9.7500   -1.2990    0.0000 C   0  0  0  0  0  0  0  0  0  0  0  0
    9.7500    0.2010    0.0000 F   0  0  0  0  0  0  0  0  0  0  0  0
    9.7500   -2.7990    0.0000 F   0  0  0  0  0  0  0  0  0  0  0  0
   11.2500   -1.2990    0.0000 C   0  0  0  0  0  0  0  0  0  0  0  0
   11.2500   -2.7990    0.0000 F   0  0  0  0  0  0  0  0  0  0  0  0
   11.2500    0.2010    0.0000 F   0  0  0  0  0  0  0  0  0  0  0  0
   12.7500   -1.2990    0.0000 C   0  0  0  0  0  0  0  0  0  0  0  0
   12.7500    0.2010    0.0000 F   0  0  0  0  0  0  0  0  0  0  0  0
   12.7500   -2.7990    0.0000 F   0  0  0  0  0  0  0  0  0  0  0  0
   14.2500   -1.2990    0.0000 C   0  0  0  0  0  0  0  0  0  0  0  0
   14.2500   -2.7990    0.0000 F   0  0  0  0  0  0  0  0  0  0  0  0
   14.2500    0.2010    0.0000 F   0  0  0  0  0  0  0  0  0  0  0  0
   15.7500   -1.2990    0.0000 C   0  0  0  0  0  0  0  0  0  0  0  0
   15.7500    0.2010    0.0000 F   0  0  0  0  0  0  0  0  0  0  0  0
   15.7500   -2.7990    0.0000 F   0  0  0  0  0  0  0  0  0  0  0  0
   17.2500   -1.2990    0.0000 C   0  0  0  0  0  0  0  0  0  0  0  0
   17.2500   -2.7990    0.0000 F   0  0  0  0  0  0  0  0  0  0  0  0
   17.2500    0.2010    0.0000 F   0  0  0  0  0  0  0  0  0  0  0  0
   18.7500   -1.2990    0.0000 C   0  0  0  0  0  0  0  0  0  0  0  0
   18.7500    0.2010    0.0000 F   0  0  0  0  0  0  0  0  0  0  0  0
   18.7500   -2.7990    0.0000 F   0  0  0  0  0  0  0  0  0  0  0  0
   20.2500   -1.2990    0.0000 C   0  0  0  0  0  0  0  0  0  0  0  0
   21.7500   -1.2990    0.0000 F   0  0  0  0  0  0  0  0  0  0  0  0
   20.2500   -2.7990    0.0000 F   0  0  0  0  0  0  0  0  0  0  0  0
   20.2500    0.2010    0.0000 F   0  0  0  0  0  0  0  0  0  0  0  0
    5.2500   -1.2990    0.0000 N   0  0  0  0  0  0  0  0  0  0  0  0
    3.7500   -1.2990    0.0000 N   0  0  0  0  0  0  0  0  0  0  0  0
    3.0000    0.0000    0.0000 C   0  0  0  0  0  0  0  0  0  0  0  0
    3.7500    1.2990    0.0000 O   0  0  0  0  0  0  0  0  0  0  0  0
    1.5000    0.0000    0.0000 C   0  0  0  0  0  0  0  0  0  0  0  0
    0.7500   -1.2990    0.0000 C   0  0  0  0  0  0  0  0  0  0  0  0
   -0.7500   -1.2990    0.0000 C   0  0  0  0  0  0  0  0  0  0  0  0
   -1.5000    0.0000    0.0000 C   0  0  0  0  0  0  0  0  0  0  0  0
   -0.7500    1.2990    0.0000 C   0  0  0  0  0  0  0  0  0  0  0  0
    0.7500    1.2990    0.0000 C   0  0  0  0  0  0  0  0  0  0  0  0
  1  2  1  0
  2  3  2  0
  3  4  1  0
  4  5  2  0
  4  6  1  0
  6  7  1  0
  6  8  1  0
  6  9  1  0
  9 10  1  0
  9 11  1  0
  9 12  1  0
 12 13  1  0
 12 14  1  0
 12 15  1  0
 15 16  1  0
 15 17  1  0
 15 18  1  0
 18 19  1  0
 18 20  1  0
 18 21  1  0
 21 22  1  0
 21 23  1  0
 21 24  1  0
 24 25  1  0
 24 26  1  0
 24 27  1  0
 27 28  1  0
 27 29  1  0
 27 30  1  0
  2 31  1  0
 31 32  1  0
 32 33  1  0
 33 34  2  0
 33 35  1  0
 35 36  2  0
 36 37  1  0
 37 38  2  0
 38 39  1  0
 39 40  2  0
 40 35  1  0
M  END
$$$$

     RDKit          2D

 29 29  0  0  0  0  0  0  0  0999 V2000
    5.2500   -1.2990    0.0000 C   0  0  0  0  0  0  0  0  0  0  0  0
    3.7500   -1.2990    0.0000 O   0  0  0  0  0  0  0  0  0  0  0  0
    3.0000    0.0000    0.0000 C   0  0  0  0  0  0  0  0  0  0  0  0
    3.7500    1.2990    0.0000 O   0  0  0  0  0  0  0  0  0  0  0  0
    1.5000    0.0000    0.0000 C   0  0  0  0  0  0  0  0  0  0  0  0
    0.7500   -1.2990    0.0000 C   0  0  0  0  0  0  0  0  0  0  0  0
   -0.7500   -1.2990    0.0000 C   0  0  0  0  0  0  0  0  0  0  0  0
   -1.5000    0.0000    0.0000 C   0  0  0  0  0  0  0  0  0  0  0  0
   -3.0000    0.0000    0.0000 Cl  0  0  0  0  0  0  0  0  0  0  0  0
   -0.7500    1.2990    0.0000 C   0  0  0  0  0  0  0  0  0  0  0  0
   -1.5000    2.5981    0.0000 O   0  0  0  0  0  0  0  0  0  0  0  0
   -0.7500    3.8971    0.0000 S   0  0  0  0  0  0  0  0  0  0  0  0
    0.5490    3.1471    0.0000 O   0  0  0  0  0  0  0  0  0  0  0  0
   -1.4838    4.2086    0.0000 O   0  0  0  0  0  0  0  0  0  0  0  0
    0.0000    5.1962    0.0000 C   0  0  0  0  0  0  0  0  0  0  0  0
    1.2990    4.4462    0.0000 F   0  0  0  0  0  0  0  0  0  0  0  0
    0.7500    6.4952    0.0000 F   0  0  0  0  0  0  0  0  0  0  0  0
   -1.2990    5.9462    0.0000 C   0  0  0  0  0  0  0  0  0  0  0  0
   -0.5490    7.2452    0.0000 F   0  0  0  0  0  0  0  0  0  0  0  0
   -1.8321    5.2388    0.0000 F   0  0  0  0  0  0  0  0  0  0  0  0
   -2.5981    6.6962    0.0000 C   0  0  0  0  0  0  0  0  0  0  0  0
   -3.3481    5.3971    0.0000 F   0  0  0  0  0  0  0  0  0  0  0  0
   -1.8481    7.9952    0.0000 F   0  0  0  0  0  0  0  0  0  0  0  0
   -3.8971    7.4462    0.0000 C   0  0  0  0  0  0  0  0  0  0  0  0
   -5.1962    8.1962    0.0000 F   0  0  0  0  0  0  0  0  0  0  0  0
   -4.6471    6.1471    0.0000 F   0  0  0  0  0  0  0  0  0  0  0  0
   -3.1471    8.7452    0.0000 F   0  0  0  0  0  0  0  0  0  0  0  0
    0.7500    1.2990    0.0000 C   0  0  0  0  0  0  0  0  0  0  0  0
    1.5000    2.5981    0.0000 Cl  0  0  0  0  0  0  0  0  0  0  0  0
  1  2  1  0
  2  3  1  0
  3  4  2  0
  3  5  1  0
  5  6  2  0
  6  7  1  0
  7  8  2  0
  8  9  1  0
  8 10  1  0
 10 11  1  0
 11 12  1  0
 12 13  2  0
 12 14  2  0
 12 15  1  0
 15 16  1  0
 15 17  1  0
 15 18  1  0
 18 19  1  0
 18 20  1  0
 18 21  1  0
 21 22  1  0
 21 23  1  0
 21 24  1  0
 24 25  1  0
 24 26  1  0
 24 27  1  0
 10 28  2  0
 28 29  1  0
 28  5  1  0
M  END
$$$$

     RDKit          2D

 38 38  0  0  0  0  0  0  0  0999 V2000
    5.2500    1.2990    0.0000 C   0  0  0  0  0  0  0  0  0  0  0  0
    3.7500    1.2990    0.0000 C   0  0  0  0  0  0  0  0  0  0  0  0
    3.0000    0.0000    0.0000 C   0  0  0  0  0  0  0  0  0  0  0  0
    3.7500   -1.2990    0.0000 O   0  0  0  0  0  0  0  0  0  0  0  0
    1.5000    0.0000    0.0000 N   0  0  0  0  0  0  0  0  0  0  0  0
    0.7500    1.2990    0.0000 C   0  0  0  0  0  0  0  0  0  0  0  0
   -0.7500    1.2990    0.0000 C   0  0  0  0  0  0  0  0  0  0  0  0
   -1.5000    0.0000    0.0000 N   0  0  0  0  0  0  0  0  0  0  0  0
   -3.0000    0.0000    0.0000 S   0  0  0  0  0  0  0  0  0  0  0  0
   -3.0000    1.5000    0.0000 O   0  0  0  0  0  0  0  0  0  0  0  0
   -2.9028   -0.7912    0.0000 O   0  0  0  0  0  0  0  0  0  0  0  0
   -4.5000    0.0000    0.0000 C   0  0  0  0  0  0  0  0  0  0  0  0
   -4.5000    1.5000    0.0000 F   0  0  0  0  0  0  0  0  0  0  0  0
   -6.0000    0.0000    0.0000 F   0  0  0  0  0  0  0  0  0  0  0  0
   -4.5000   -1.5000    0.0000 C   0  0  0  0  0  0  0  0  0  0  0  0
   -3.6209   -1.6080    0.0000 F   0  0  0  0  0  0  0  0  0  0  0  0
   -6.0000   -1.5000    0.0000 F   0  0  0  0  0  0  0  0  0  0  0  0
   -4.5000   -3.0000    0.0000 C   0  0  0  0  0  0  0  0  0  0  0  0
   -3.0000   -3.0000    0.0000 F   0  0  0  0  0  0  0  0  0  0  0  0
   -6.0000   -3.0000    0.0000 F   0  0  0  0  0  0  0  0  0  0  0  0
   -4.5000   -4.5000    0.0000 C   0  0  0  0  0  0  0  0  0  0  0  0
   -6.0000   -4.5000    0.0000 F   0  0  0  0  0  0  0  0  0  0  0  0
   -3.0000   -4.5000    0.0000 F   0  0  0  0  0  0  0  0  0  0  0  0
   -4.5000   -6.0000    0.0000 C   0  0  0  0  0  0  0  0  0  0  0  0
   -6.0000   -6.0000    0.0000 F   0  0  0  0  0  0  0  0  0  0  0  0
   -3.0000   -6.0000    0.0000 F   0  0  0  0  0  0  0  0  0  0  0  0
   -4.5000   -7.5000    0.0000 C   0  0  0  0  0  0  0  0  0  0  0  0
   -3.0000   -7.5000    0.0000 F   0  0  0  0  0  0  0  0  0  0  0  0
   -6.0000   -7.5000    0.0000 F   0  0  0  0  0  0  0  0  0  0  0  0
   -4.5000   -9.0000    0.0000 C   0  0  0  0  0  0  0  0  0  0  0  0
   -6.0000   -9.0000    0.0000 F   0  0  0  0  0  0  0  0  0  0  0  0
   -3.0000   -9.0000    0.0000 F   0  0  0  0  0  0  0  0  0  0  0  0
   -4.5000  -10.5000    0.0000 C   0  0  0  0  0  0  0  0  0  0  0  0
   -4.5000  -12.0000    0.0000 F   0  0  0  0  0  0  0  0  0  0  0  0
   -3.0000  -10.5000    0.0000 F   0  0  0  0  0  0  0  0  0  0  0  0
   -6.0000  -10.5000    0.0000 F   0  0  0  0  0  0  0  0  0  0  0  0
   -0.7500   -1.2990    0.0000 C   0  0  0  0  0  0  0  0  0  0  0  0
    0.7500   -1.2990    0.0000 C   0  0  0  0  0  0  0  0  0  0  0  0
  1  2  1  0
  2  3  1  0
  3  4  2  0
  3  5  1  0
  5  6  1  0
  6  7  1  0
  7  8  1  0
  8  9  1  0
  9 10  2  0
  9 11  2  0
  9 12  1  0
 12 13  1  0
 12 14  1  0
 12 15  1  0
 15 16  1  0
 15 17  1  0
 15 18  1  0
 18 19  1  0
 18 20  1  0
 18 21  1  0
 21 22  1  0
 21 23  1  0
 21 24  1  0
 24 25  1  0
 24 26  1  0
 24 27  1  0
 27 28  1  0
 27 29  1  0
 27 30  1  0
 30 31  1  0
 30 32  1  0
 30 33  1  0
 33 34  1  0
 33 35  1  0
 33 36  1  0
  8 37  1  0
 37 38  1  0
 38  5  1  0
M  END
$$$$

     RDKit          2D

 29 31  0  0  0  0  0  0  0  0999 V2000
   -4.6883    2.2939    0.0000 C   0  0  0  0  0  0  0  0  0  0  0  0
   -3.5736    1.2902    0.0000 O   0  0  0  0  0  0  0  0  0  0  0  0
   -2.1470    1.7537    0.0000 C   0  0  0  0  0  0  0  0  0  0  0  0
   -1.8351    3.2209    0.0000 C   0  0  0  0  0  0  0  0  0  0  0  0
   -0.4086    3.6844    0.0000 C   0  0  0  0  0  0  0  0  0  0  0  0
    0.7062    2.6807    0.0000 C   0  0  0  0  0  0  0  0  0  0  0  0
    2.1328    3.1443    0.0000 O   0  0  0  0  0  0  0  0  0  0  0  0
    3.2475    2.1406    0.0000 C   0  0  0  0  0  0  0  0  0  0  0  0
    0.3943    1.2135    0.0000 C   0  0  0  0  0  0  0  0  0  0  0  0
    1.2760    0.0000    0.0000 O   0  0  0  0  0  0  0  0  0  0  0  0
    0.3943   -1.2135    0.0000 C   0  0  0  0  0  0  0  0  0  0  0  0
   -1.0323   -0.7500    0.0000 C   0  0  0  0  0  0  0  0  0  0  0  0
   -1.0323    0.7500    0.0000 C   0  0  0  0  0  0  0  0  0  0  0  0
   -0.0967    5.1517    0.0000 O   0  0  0  0  0  0  0  0  0  0  0  0
   -1.2114    6.1554    0.0000 C   0  0  0  0  0  0  0  0  0  0  0  0
   -0.0294    7.0789    0.0000 O   0  0  0  0  0  0  0  0  0  0  0  0
   -1.9156    7.4798    0.0000 C   0  0  0  0  0  0  0  0  0  0  0  0
   -0.5912    8.1840    0.0000 F   0  0  0  0  0  0  0  0  0  0  0  0
   -3.2400    6.7756    0.0000 F   0  0  0  0  0  0  0  0  0  0  0  0
   -2.6198    8.8042    0.0000 C   0  0  0  0  0  0  0  0  0  0  0  0
   -3.9442    8.1000    0.0000 F   0  0  0  0  0  0  0  0  0  0  0  0
   -1.2954    9.5084    0.0000 F   0  0  0  0  0  0  0  0  0  0  0  0
   -3.3240   10.1286    0.0000 C   0  0  0  0  0  0  0  0  0  0  0  0
   -4.0282   11.4530    0.0000 F   0  0  0  0  0  0  0  0  0  0  0  0
   -1.9996   10.8328    0.0000 F   0  0  0  0  0  0  0  0  0  0  0  0
   -4.6484    9.4244    0.0000 F   0  0  0  0  0  0  0  0  0  0  0  0
   -2.6380    5.6918    0.0000 C   0  0  0  0  0  0  0  0  0  0  0  0
   -2.9499    4.2246    0.0000 C   0  0  0  0  0  0  0  0  0  0  0  0
   -4.3764    3.7611    0.0000 O   0  0  0  0  0  0  0  0  0  0  0  0
  1  2  1  0
  2  3  1  0
  3  4  2  0
  4  5  1  0
  5  6  2  0
  6  7  1  0
  7  8  1  0
  6  9  1  0
  9 10  1  0
 10 11  1  0
 11 12  2  0
 12 13  1  0
  5 14  1  0
 14 15  1  0
 15 16  1  0
 15 17  1  0
 17 18  1  0
 17 19  1  0
 17 20  1  0
 20 21  1  0
 20 22  1  0
 20 23  1  0
 23 24  1  0
 23 25  1  0
 23 26  1  0
 15 27  1  0
 27 28  1  0
 28 29  2  0
 13  3  1  0
 28  4  1  0
 13  9  2  0
M  END
$$$$

     RDKit          2D

 32 34  0  0  0  0  0  0  0  0999 V2000
    3.9485   -1.0497    0.0000 C   0  0  0  0  0  0  0  0  0  0  0  0
    3.1792   -2.3373    0.0000 C   0  0  0  0  0  0  0  0  0  0  0  0
    3.7687   -3.7166    0.0000 N   0  0  0  0  0  0  0  0  0  0  0  0
    2.6391   -4.7035    0.0000 N   0  0  0  0  0  0  0  0  0  0  0  0
    1.3515   -3.9342    0.0000 C   0  0  0  0  0  0  0  0  0  0  0  0
    1.6852   -2.4718    0.0000 N   0  0  0  0  0  0  0  0  0  0  0  0
    0.7500   -1.2990    0.0000 C   0  0  0  0  0  0  0  0  0  0  0  0
    1.5000    0.0000    0.0000 C   0  0  0  0  0  0  0  0  0  0  0  0
    0.7500    1.2990    0.0000 C   0  0  0  0  0  0  0  0  0  0  0  0
   -0.7500    1.2990    0.0000 C   0  0  0  0  0  0  0  0  0  0  0  0
   -1.5000    0.0000    0.0000 C   0  0  0  0  0  0  0  0  0  0  0  0
   -0.7500   -1.2990    0.0000 C   0  0  0  0  0  0  0  0  0  0  0  0
   -1.6852   -2.4718    0.0000 C   0  0  0  0  0  0  0  0  0  0  0  0
   -3.1476   -2.1380    0.0000 O   0  0  0  0  0  0  0  0  0  0  0  0
   -4.1679   -3.2376    0.0000 S   0  0  0  0  0  0  0  0  0  0  0  0
   -3.0683   -4.2578    0.0000 O   0  0  0  0  0  0  0  0  0  0  0  0
   -4.6818   -2.6282    0.0000 O   0  0  0  0  0  0  0  0  0  0  0  0
   -5.1881   -4.3372    0.0000 C   0  0  0  0  0  0  0  0  0  0  0  0
   -4.0886   -5.3574    0.0000 F   0  0  0  0  0  0  0  0  0  0  0  0
   -6.2084   -5.4367    0.0000 F   0  0  0  0  0  0  0  0  0  0  0  0
   -6.2877   -3.3169    0.0000 C   0  0  0  0  0  0  0  0  0  0  0  0
   -5.7689   -2.5990    0.0000 F   0  0  0  0  0  0  0  0  0  0  0  0
   -7.3080   -4.4165    0.0000 F   0  0  0  0  0  0  0  0  0  0  0  0
   -7.3873   -2.2966    0.0000 C   0  0  0  0  0  0  0  0  0  0  0  0
   -8.4076   -3.3962    0.0000 F   0  0  0  0  0  0  0  0  0  0  0  0
   -6.3670   -1.1971    0.0000 F   0  0  0  0  0  0  0  0  0  0  0  0
   -8.4869   -1.2764    0.0000 C   0  0  0  0  0  0  0  0  0  0  0  0
   -9.5865   -0.2561    0.0000 F   0  0  0  0  0  0  0  0  0  0  0  0
   -9.5071   -2.3760    0.0000 F   0  0  0  0  0  0  0  0  0  0  0  0
   -7.4666   -0.1768    0.0000 F   0  0  0  0  0  0  0  0  0  0  0  0
   -1.3515   -3.9342    0.0000 C   0  0  0  0  0  0  0  0  0  0  0  0
    0.0000   -4.5850    0.0000 C   0  0  0  0  0  0  0  0  0  0  0  0
  1  2  1  0
  2  3  2  0
  3  4  1  0
  4  5  2  0
  5  6  1  0
  6  7  1  0
  7  8  2  0
  8  9  1  0
  9 10  2  0
 10 11  1  0
 11 12  2  0
 12 13  1  0
 13 14  1  0
 14 15  1  0
 15 16  2  0
 15 17  2  0
 15 18  1  0
 18 19  1  0
 18 20  1  0
 18 21  1  0
 21 22  1  0
 21 23  1  0
 21 24  1  0
 24 25  1  0
 24 26  1  0
 24 27  1  0
 27 28  1  0
 27 29  1  0
 27 30  1  0
 13 31  2  0
 31 32  1  0
  6  2  1  0
 12  7  1  0
 32  5  1  0
M  END
$$$$

     RDKit          2D

 12 11  0  0  0  0  0  0  0  0999 V2000
   -1.2990    0.7500    0.0000 N   0  0  0  0  0  0  0  0  0  0  0  0
    0.0000    0.0000    0.0000 C   0  0  0  0  0  0  0  0  0  0  0  0
    1.2990    0.7500    0.0000 C   0  0  0  0  0  0  0  0  0  0  0  0
    0.5490    2.0490    0.0000 F   0  0  0  0  0  0  0  0  0  0  0  0
    2.5981    1.5000    0.0000 C   0  0  0  0  0  0  0  0  0  0  0  0
    3.8971    2.2500    0.0000 F   0  0  0  0  0  0  0  0  0  0  0  0
    1.8481    2.7990    0.0000 F   0  0  0  0  0  0  0  0  0  0  0  0
    3.1311    0.7926    0.0000 F   0  0  0  0  0  0  0  0  0  0  0  0
    2.0490   -0.5490    0.0000 C   0  0  0  0  0  0  0  0  0  0  0  0
    2.7990   -1.8481    0.0000 F   0  0  0  0  0  0  0  0  0  0  0  0
    0.7500   -1.2990    0.0000 F   0  0  0  0  0  0  0  0  0  0  0  0
    2.8644   -0.2030    0.0000 F   0  0  0  0  0  0  0  0  0  0  0  0
  1  2  1  0
  2  3  1  0
  3  4  1  0
  3  5  1  0
  5  6  1  0
  5  7  1  0
  5  8  1  0
  3  9  1  0
  9 10  1  0
  9 11  1  0
  9 12  1  0
M  END
$$$$

     RDKit          2D

 17 16  0  0  0  0  0  0  0  0999 V2000
    0.0000    0.0000    0.0000 C   0  0  0  0  0  0  0  0  0  0  0  0
    1.2990    0.7500    0.0000 C   0  0  0  0  0  0  0  0  0  0  0  0
    2.5981   -0.0000    0.0000 C   0  0  0  0  0  0  0  0  0  0  0  0
    3.8971    0.7500    0.0000 C   0  0  0  0  0  0  0  0  0  0  0  0
    5.1962   -0.0000    0.0000 C   0  0  0  0  0  0  0  0  0  0  0  0
    5.1962   -1.5000    0.0000 I   0  0  0  0  0  0  0  0  0  0  0  0
    6.4952    0.7500    0.0000 C   0  0  0  0  0  0  0  0  0  0  0  0
    7.7942   -0.0000    0.0000 C   0  0  0  0  0  0  0  0  0  0  0  0
    7.0442   -1.2990    0.0000 F   0  0  0  0  0  0  0  0  0  0  0  0
    9.0933   -0.7500    0.0000 C   0  0  0  0  0  0  0  0  0  0  0  0
   10.3923   -1.5000    0.0000 F   0  0  0  0  0  0  0  0  0  0  0  0
    8.3433   -2.0490    0.0000 F   0  0  0  0  0  0  0  0  0  0  0  0
    9.6263   -0.0426    0.0000 F   0  0  0  0  0  0  0  0  0  0  0  0
    8.5442    1.2990    0.0000 C   0  0  0  0  0  0  0  0  0  0  0  0
    9.2942    2.5981    0.0000 F   0  0  0  0  0  0  0  0  0  0  0  0
    9.3596    0.9530    0.0000 F   0  0  0  0  0  0  0  0  0  0  0  0
    7.2452    2.0490    0.0000 F   0  0  0  0  0  0  0  0  0  0  0  0
  1  2  1  0
  2  3  1  0
  3  4  1  0
  4  5  1  0
  5  6  1  0
  5  7  1  0
  7  8  1  0
  8  9  1  0
  8 10  1  0
 10 11  1  0
 10 12  1  0
 10 13  1  0
  8 14  1  0
 14 15  1  0
 14 16  1  0
 14 17  1  0
M  END
$$$$

     RDKit          2D

 17 17  0  0  0  0  0  0  0  0999 V2000
    3.0000    0.0000    0.0000 F   0  0  0  0  0  0  0  0  0  0  0  0
    1.5000    0.0000    0.0000 C   0  0  0  0  0  0  0  0  0  0  0  0
    0.7500   -1.2990    0.0000 C   0  0  0  0  0  0  0  0  0  0  0  0
   -0.7500   -1.2990    0.0000 C   0  0  0  0  0  0  0  0  0  0  0  0
   -1.5000    0.0000    0.0000 C   0  0  0  0  0  0  0  0  0  0  0  0
   -3.0000    0.0000    0.0000 C   0  0  0  0  0  0  0  0  0  0  0  0
   -3.0000   -1.5000    0.0000 F   0  0  0  0  0  0  0  0  0  0  0  0
   -4.5000    0.0000    0.0000 C   0  0  0  0  0  0  0  0  0  0  0  0
   -6.0000   -0.0000    0.0000 F   0  0  0  0  0  0  0  0  0  0  0  0
   -4.5000   -1.5000    0.0000 F   0  0  0  0  0  0  0  0  0  0  0  0
   -4.6080    0.8791    0.0000 F   0  0  0  0  0  0  0  0  0  0  0  0
   -3.0000    1.5000    0.0000 C   0  0  0  0  0  0  0  0  0  0  0  0
   -3.0000    3.0000    0.0000 F   0  0  0  0  0  0  0  0  0  0  0  0
   -3.8791    1.6080    0.0000 F   0  0  0  0  0  0  0  0  0  0  0  0
   -1.5446    1.8630    0.0000 F   0  0  0  0  0  0  0  0  0  0  0  0
   -0.7500    1.2990    0.0000 C   0  0  0  0  0  0  0  0  0  0  0  0
    0.7500    1.2990    0.0000 C   0  0  0  0  0  0  0  0  0  0  0  0
  1  2  1  0
  2  3  2  0
  3  4  1  0
  4  5  2  0
  5  6  1  0
  6  7  1  0
  6  8  1  0
  8  9  1  0
  8 10  1  0
  8 11  1  0
  6 12  1  0
 12 13  1  0
 12 14  1  0
 12 15  1  0
  5 16  1  0
 16 17  2  0
 17  2  1  0
M  END
$$$$

     RDKit          2D

 17 17  0  0  0  0  0  0  0  0999 V2000
    3.0000    0.0000    0.0000 O   0  0  0  0  0  0  0  0  0  0  0  0
    1.5000    0.0000    0.0000 C   0  0  0  0  0  0  0  0  0  0  0  0
    0.7500   -1.2990    0.0000 C   0  0  0  0  0  0  0  0  0  0  0  0
   -0.7500   -1.2990    0.0000 C   0  0  0  0  0  0  0  0  0  0  0  0
   -1.5000    0.0000    0.0000 C   0  0  0  0  0  0  0  0  0  0  0  0
   -3.0000    0.0000    0.0000 C   0  0  0  0  0  0  0  0  0  0  0  0
   -3.0000   -1.5000    0.0000 F   0  0  0  0  0  0  0  0  0  0  0  0
   -4.5000    0.0000    0.0000 C   0  0  0  0  0  0  0  0  0  0  0  0
   -6.0000   -0.0000    0.0000 F   0  0  0  0  0  0  0  0  0  0  0  0
   -4.5000   -1.5000    0.0000 F   0  0  0  0  0  0  0  0  0  0  0  0
   -4.6080    0.8791    0.0000 F   0  0  0  0  0  0  0  0  0  0  0  0
   -3.0000    1.5000    0.0000 C   0  0  0  0  0  0  0  0  0  0  0  0
   -3.0000    3.0000    0.0000 F   0  0  0  0  0  0  0  0  0  0  0  0
   -3.8791    1.6080    0.0000 F   0  0  0  0  0  0  0  0  0  0  0  0
   -1.5446    1.8630    0.0000 F   0  0  0  0  0  0  0  0  0  0  0  0
   -0.7500    1.2990    0.0000 C   0  0  0  0  0  0  0  0  0  0  0  0
    0.7500    1.2990    0.0000 C   0  0  0  0  0  0  0  0  0  0  0  0
  1  2  1  0
  2  3  2  0
  3  4  1  0
  4  5  2  0
  5  6  1  0
  6  7  1  0
  6  8  1  0
  8  9  1  0
  8 10  1  0
  8 11  1  0
  6 12  1  0
 12 13  1  0
 12 14  1  0
 12 15  1  0
  5 16  1  0
 16 17  2  0
 17  2  1  0
M  END
$$$$

     RDKit          2D

 19 19  0  0  0  0  0  0  0  0999 V2000
    3.7500   -1.2990    0.0000 C   0  0  0  0  0  0  0  0  0  0  0  0
    3.0000    0.0000    0.0000 C   0  0  0  0  0  0  0  0  0  0  0  0
    3.7500    1.2990    0.0000 O   0  0  0  0  0  0  0  0  0  0  0  0
    1.5000    0.0000    0.0000 C   0  0  0  0  0  0  0  0  0  0  0  0
    0.7500   -1.2990    0.0000 C   0  0  0  0  0  0  0  0  0  0  0  0
   -0.7500   -1.2990    0.0000 C   0  0  0  0  0  0  0  0  0  0  0  0
   -1.5000    0.0000    0.0000 C   0  0  0  0  0  0  0  0  0  0  0  0
   -3.0000    0.0000    0.0000 C   0  0  0  0  0  0  0  0  0  0  0  0
   -3.0000   -1.5000    0.0000 F   0  0  0  0  0  0  0  0  0  0  0  0
   -4.5000    0.0000    0.0000 C   0  0  0  0  0  0  0  0  0  0  0  0
   -6.0000   -0.0000    0.0000 F   0  0  0  0  0  0  0  0  0  0  0  0
   -4.5000   -1.5000    0.0000 F   0  0  0  0  0  0  0  0  0  0  0  0
   -4.6080    0.8791    0.0000 F   0  0  0  0  0  0  0  0  0  0  0  0
   -3.0000    1.5000    0.0000 C   0  0  0  0  0  0  0  0  0  0  0  0
   -3.0000    3.0000    0.0000 F   0  0  0  0  0  0  0  0  0  0  0  0
   -3.8791    1.6080    0.0000 F   0  0  0  0  0  0  0  0  0  0  0  0
   -1.5446    1.8630    0.0000 F   0  0  0  0  0  0  0  0  0  0  0  0
   -0.7500    1.2990    0.0000 C   0  0  0  0  0  0  0  0  0  0  0  0
    0.7500    1.2990    0.0000 C   0  0  0  0  0  0  0  0  0  0  0  0
  1  2  1  0
  2  3  2  0
  2  4  1  0
  4  5  2  0
  5  6  1  0
  6  7  2  0
  7  8  1  0
  8  9  1  0
  8 10  1  0
 10 11  1  0
 10 12  1  0
 10 13  1  0
  8 14  1  0
 14 15  1  0
 14 16  1  0
 14 17  1  0
  7 18  1  0
 18 19  2  0
 19  4  1  0
M  END
$$$$

     RDKit          2D

 18 18  0  0  0  0  0  0  0  0999 V2000
    3.0000    0.0000    0.0000 C   0  0  0  0  0  0  0  0  0  0  0  0
    1.5000    0.0000    0.0000 C   0  0  0  0  0  0  0  0  0  0  0  0
    0.7500   -1.2990    0.0000 C   0  0  0  0  0  0  0  0  0  0  0  0
   -0.7500   -1.2990    0.0000 C   0  0  0  0  0  0  0  0  0  0  0  0
   -1.5000   -2.5981    0.0000 C   0  0  0  0  0  0  0  0  0  0  0  0
   -0.2010   -3.3481    0.0000 F   0  0  0  0  0  0  0  0  0  0  0  0
   -2.2500   -3.8971    0.0000 C   0  0  0  0  0  0  0  0  0  0  0  0
   -3.0000   -5.1962    0.0000 F   0  0  0  0  0  0  0  0  0  0  0  0
   -0.9510   -4.6471    0.0000 F   0  0  0  0  0  0  0  0  0  0  0  0
   -3.0653   -3.5511    0.0000 F   0  0  0  0  0  0  0  0  0  0  0  0
   -2.7990   -1.8481    0.0000 C   0  0  0  0  0  0  0  0  0  0  0  0
   -4.0981   -1.0981    0.0000 F   0  0  0  0  0  0  0  0  0  0  0  0
   -3.3321   -2.5554    0.0000 F   0  0  0  0  0  0  0  0  0  0  0  0
   -2.3857   -0.4062    0.0000 F   0  0  0  0  0  0  0  0  0  0  0  0
   -1.5000    0.0000    0.0000 C   0  0  0  0  0  0  0  0  0  0  0  0
   -0.7500    1.2990    0.0000 C   0  0  0  0  0  0  0  0  0  0  0  0
    0.7500    1.2990    0.0000 C   0  0  0  0  0  0  0  0  0  0  0  0
    1.5000    2.5981    0.0000 Br  0  0  0  0  0  0  0  0  0  0  0  0
  1  2  1  0
  2  3  2  0
  3  4  1  0
  4  5  1  0
  5  6  1  0
  5  7  1  0
  7  8  1  0
  7  9  1  0
  7 10  1  0
  5 11  1  0
 11 12  1  0
 11 13  1  0
 11 14  1  0
  4 15  2  0
 15 16  1  0
 16 17  2  0
 17 18  1  0
 17  2  1  0
M  END
$$$$

     RDKit          2D

 17 17  0  0  0  0  0  0  0  0999 V2000
    6.0000    0.0000    0.0000 F   0  0  0  0  0  0  0  0  0  0  0  0
    4.5000    0.0000    0.0000 C   0  0  0  0  0  0  0  0  0  0  0  0
    4.5000    1.5000    0.0000 F   0  0  0  0  0  0  0  0  0  0  0  0
    4.6080   -0.8791    0.0000 F   0  0  0  0  0  0  0  0  0  0  0  0
    3.0000    0.0000    0.0000 C   0  0  0  0  0  0  0  0  0  0  0  0
    3.0000    1.5000    0.0000 F   0  0  0  0  0  0  0  0  0  0  0  0
    1.5000    0.0000    0.0000 C   0  0  0  0  0  0  0  0  0  0  0  0
    0.7500   -1.2990    0.0000 C   0  0  0  0  0  0  0  0  0  0  0  0
   -0.7500   -1.2990    0.0000 N   0  0  0  0  0  0  0  0  0  0  0  0
   -1.5000    0.0000    0.0000 C   0  0  0  0  0  0  0  0  0  0  0  0
   -0.7500    1.2990    0.0000 C   0  0  0  0  0  0  0  0  0  0  0  0
   -1.5000    2.5981    0.0000 Br  0  0  0  0  0  0  0  0  0  0  0  0
    0.7500    1.2990    0.0000 C   0  0  0  0  0  0  0  0  0  0  0  0
    3.0000   -1.5000    0.0000 C   0  0  0  0  0  0  0  0  0  0  0  0
    3.0000   -3.0000    0.0000 F   0  0  0  0  0  0  0  0  0  0  0  0
    3.8791   -1.6080    0.0000 F   0  0  0  0  0  0  0  0  0  0  0  0
    1.5446   -1.8630    0.0000 F   0  0  0  0  0  0  0  0  0  0  0  0
  1  2  1  0
  2  3  1  0
  2  4  1  0
  2  5  1  0
  5  6  1  0
  5  7  1  0
  7  8  2  0
  8  9  1  0
  9 10  2  0
 10 11  1  0
 11 12  1  0
 11 13  2  0
  5 14  1  0
 14 15  1  0
 14 16  1  0
 14 17  1  0
 13  7  1  0
M  END
$$$$

     RDKit          2D

 19 19  0  0  0  0  0  0  0  0999 V2000
    3.0000    0.0000    0.0000 C   0  0  0  0  0  0  0  0  0  0  0  0
    1.5000    0.0000    0.0000 C   0  0  0  0  0  0  0  0  0  0  0  0
    0.7500   -1.2990    0.0000 C   0  0  0  0  0  0  0  0  0  0  0  0
   -0.7500   -1.2990    0.0000 C   0  0  0  0  0  0  0  0  0  0  0  0
   -1.5000   -2.5981    0.0000 C   0  0  0  0  0  0  0  0  0  0  0  0
   -0.2010   -3.3481    0.0000 F   0  0  0  0  0  0  0  0  0  0  0  0
   -2.2500   -3.8971    0.0000 C   0  0  0  0  0  0  0  0  0  0  0  0
   -3.0000   -5.1962    0.0000 F   0  0  0  0  0  0  0  0  0  0  0  0
   -0.9510   -4.6471    0.0000 F   0  0  0  0  0  0  0  0  0  0  0  0
   -3.0653   -3.5511    0.0000 F   0  0  0  0  0  0  0  0  0  0  0  0
   -2.7990   -1.8481    0.0000 C   0  0  0  0  0  0  0  0  0  0  0  0
   -4.0981   -1.0981    0.0000 F   0  0  0  0  0  0  0  0  0  0  0  0
   -3.3321   -2.5554    0.0000 F   0  0  0  0  0  0  0  0  0  0  0  0
   -2.3857   -0.4062    0.0000 F   0  0  0  0  0  0  0  0  0  0  0  0
   -1.5000    0.0000    0.0000 C   0  0  0  0  0  0  0  0  0  0  0  0
   -0.7500    1.2990    0.0000 C   0  0  0  0  0  0  0  0  0  0  0  0
   -1.5000    2.5981    0.0000 Br  0  0  0  0  0  0  0  0  0  0  0  0
    0.7500    1.2990    0.0000 C   0  0  0  0  0  0  0  0  0  0  0  0
    1.5000    2.5981    0.0000 N   0  0  0  0  0  0  0  0  0  0  0  0
  1  2  1  0
  2  3  2  0
  3  4  1  0
  4  5  1  0
  5  6  1  0
  5  7  1  0
  7  8  1  0
  7  9  1  0
  7 10  1  0
  5 11  1  0
 11 12  1  0
 11 13  1  0
 11 14  1  0
  4 15  2  0
 15 16  1  0
 16 17  1  0
 16 18  2  0
 18 19  1  0
 18  2  1  0
M  END
$$$$

     RDKit          2D

 21 20  0  0  0  0  0  0  0  0999 V2000
    0.0000    0.0000    0.0000 C   0  0  0  0  0  0  0  0  0  0  0  0
    1.2990    0.7500    0.0000 N   0  0  0  0  0  0  0  0  0  0  0  0
    2.5981   -0.0000    0.0000 C   0  0  0  0  0  0  0  0  0  0  0  0
    3.8971    0.7500    0.0000 C   0  0  0  0  0  0  0  0  0  0  0  0
    5.1962   -0.0000    0.0000 C   0  0  0  0  0  0  0  0  0  0  0  0
    6.4952    0.7500    0.0000 C   0  0  0  0  0  0  0  0  0  0  0  0
    7.7942   -0.0000    0.0000 S   0  0  0  0  0  0  0  0  0  0  0  0
    8.5442    1.2990    0.0000 O   0  0  0  0  0  0  0  0  0  0  0  0
    7.0442   -1.2990    0.0000 O   0  0  0  0  0  0  0  0  0  0  0  0
    9.0933   -0.7500    0.0000 C   0  0  0  0  0  0  0  0  0  0  0  0
    9.0933   -2.2500    0.0000 C   0  0  0  0  0  0  0  0  0  0  0  0
   10.3923   -3.0000    0.0000 C   0  0  0  0  0  0  0  0  0  0  0  0
   11.1423   -1.7010    0.0000 F   0  0  0  0  0  0  0  0  0  0  0  0
   11.6913   -3.7500    0.0000 C   0  0  0  0  0  0  0  0  0  0  0  0
   12.9904   -4.5000    0.0000 F   0  0  0  0  0  0  0  0  0  0  0  0
   12.4413   -2.4510    0.0000 F   0  0  0  0  0  0  0  0  0  0  0  0
   11.3453   -4.5653    0.0000 F   0  0  0  0  0  0  0  0  0  0  0  0
    9.6423   -4.2990    0.0000 C   0  0  0  0  0  0  0  0  0  0  0  0
    8.8923   -5.5981    0.0000 F   0  0  0  0  0  0  0  0  0  0  0  0
    8.3433   -3.5490    0.0000 F   0  0  0  0  0  0  0  0  0  0  0  0
   10.3497   -4.8321    0.0000 F   0  0  0  0  0  0  0  0  0  0  0  0
  1  2  1  0
  2  3  1  0
  3  4  1  0
  4  5  1  0
  5  6  1  0
  6  7  1  0
  7  8  2  0
  7  9  2  0
  7 10  1  0
 10 11  1  0
 11 12  1  0
 12 13  1  0
 12 14  1  0
 14 15  1  0
 14 16  1  0
 14 17  1  0
 12 18  1  0
 18 19  1  0
 18 20  1  0
 18 21  1  0
M  END
$$$$

     RDKit          2D

 28 28  0  0  0  0  0  0  0  0999 V2000
    3.7586   -3.4472    0.0000 F   0  0  0  0  0  0  0  0  0  0  0  0
    2.7944   -2.2981    0.0000 C   0  0  0  0  0  0  0  0  0  0  0  0
    3.9435   -1.3340    0.0000 F   0  0  0  0  0  0  0  0  0  0  0  0
    1.6453   -3.2623    0.0000 F   0  0  0  0  0  0  0  0  0  0  0  0
    1.8302   -1.1491    0.0000 C   0  0  0  0  0  0  0  0  0  0  0  0
    1.1875   -2.0338    0.0000 F   0  0  0  0  0  0  0  0  0  0  0  0
    2.8492   -0.4874    0.0000 F   0  0  0  0  0  0  0  0  0  0  0  0
    0.8660    0.0000    0.0000 C   0  0  0  0  0  0  0  0  0  0  0  0
    1.8302    1.1491    0.0000 C   0  0  0  0  0  0  0  0  0  0  0  0
    2.8492    0.4874    0.0000 F   0  0  0  0  0  0  0  0  0  0  0  0
    2.7944    2.2981    0.0000 C   0  0  0  0  0  0  0  0  0  0  0  0
    3.7586    3.4472    0.0000 F   0  0  0  0  0  0  0  0  0  0  0  0
    3.9435    1.3340    0.0000 F   0  0  0  0  0  0  0  0  0  0  0  0
    2.1903    2.9459    0.0000 F   0  0  0  0  0  0  0  0  0  0  0  0
    0.6811    2.1132    0.0000 C   0  0  0  0  0  0  0  0  0  0  0  0
   -0.4679    3.0774    0.0000 F   0  0  0  0  0  0  0  0  0  0  0  0
    1.1635    2.8561    0.0000 F   0  0  0  0  0  0  0  0  0  0  0  0
   -0.0355    1.5927    0.0000 F   0  0  0  0  0  0  0  0  0  0  0  0
   -0.4330    0.7500    0.0000 O   0  0  0  0  0  0  0  0  0  0  0  0
   -0.4330   -0.7500    0.0000 C   0  0  0  0  0  0  0  0  0  0  0  0
    0.0800   -2.1595    0.0000 C   0  0  0  0  0  0  0  0  0  0  0  0
    0.5930   -3.5691    0.0000 F   0  0  0  0  0  0  0  0  0  0  0  0
   -1.2565   -2.8406    0.0000 F   0  0  0  0  0  0  0  0  0  0  0  0
    1.1675   -2.0453    0.0000 F   0  0  0  0  0  0  0  0  0  0  0  0
   -1.9102   -1.0105    0.0000 C   0  0  0  0  0  0  0  0  0  0  0  0
   -3.3874   -1.2709    0.0000 F   0  0  0  0  0  0  0  0  0  0  0  0
   -2.1707    0.4667    0.0000 F   0  0  0  0  0  0  0  0  0  0  0  0
   -1.8318   -2.5084    0.0000 F   0  0  0  0  0  0  0  0  0  0  0  0
  1  2  1  0
  2  3  1  0
  2  4  1  0
  2  5  1  0
  5  6  1  0
  5  7  1  0
  5  8  1  0
  8  9  1  0
  9 10  1  0
  9 11  1  0
 11 12  1  0
 11 13  1  0
 11 14  1  0
  9 15  1  0
 15 16  1  0
 15 17  1  0
 15 18  1  0
  8 19  1  0
 19 20  1  0
 20 21  1  0
 21 22  1  0
 21 23  1  0
 21 24  1  0
 20 25  1  0
 25 26  1  0
 25 27  1  0
 25 28  1  0
 20  8  1  0
M  END
$$$$

     RDKit          2D

 23 23  0  0  0  0  0  0  0  0999 V2000
    5.2500   -1.2990    0.0000 C   0  0  0  0  0  0  0  0  0  0  0  0
    3.7500   -1.2990    0.0000 C   0  0  0  0  0  0  0  0  0  0  0  0
    3.0000    0.0000    0.0000 S   0  0  0  0  0  0  0  0  0  0  0  0
    1.5000    0.0000    0.0000 C   0  0  0  0  0  0  0  0  0  0  0  0
    0.7500   -1.2990    0.0000 C   0  0  0  0  0  0  0  0  0  0  0  0
    1.5000   -2.5981    0.0000 C   0  0  0  0  0  0  0  0  0  0  0  0
    2.7990   -1.8481    0.0000 F   0  0  0  0  0  0  0  0  0  0  0  0
    2.2500   -3.8971    0.0000 C   0  0  0  0  0  0  0  0  0  0  0  0
    3.0000   -5.1962    0.0000 F   0  0  0  0  0  0  0  0  0  0  0  0
    3.5490   -3.1471    0.0000 F   0  0  0  0  0  0  0  0  0  0  0  0
    1.5426   -4.4302    0.0000 F   0  0  0  0  0  0  0  0  0  0  0  0
    0.2010   -3.3481    0.0000 C   0  0  0  0  0  0  0  0  0  0  0  0
   -1.0981   -4.0981    0.0000 F   0  0  0  0  0  0  0  0  0  0  0  0
    0.5470   -4.1634    0.0000 F   0  0  0  0  0  0  0  0  0  0  0  0
   -0.8411   -2.2691    0.0000 F   0  0  0  0  0  0  0  0  0  0  0  0
   -0.7500   -1.2990    0.0000 C   0  0  0  0  0  0  0  0  0  0  0  0
   -1.5000    0.0000    0.0000 C   0  0  0  0  0  0  0  0  0  0  0  0
   -0.7500    1.2990    0.0000 C   0  0  0  0  0  0  0  0  0  0  0  0
   -1.5000    2.5981    0.0000 C   0  0  0  0  0  0  0  0  0  0  0  0
   -3.0000    2.5981    0.0000 O   0  0  0  0  0  0  0  0  0  0  0  0
   -0.7500    3.8971    0.0000 O   0  0  0  0  0  0  0  0  0  0  0  0
    0.7500    1.2990    0.0000 C   0  0  0  0  0  0  0  0  0  0  0  0
    1.5000    2.5981    0.0000 C   0  0  0  0  0  0  0  0  0  0  0  0
  1  2  1  0
  2  3  1  0
  3  4  1  0
  4  5  2  0
  5  6  1  0
  6  7  1  0
  6  8  1  0
  8  9  1  0
  8 10  1  0
  8 11  1  0
  6 12  1  0
 12 13  1  0
 12 14  1  0
 12 15  1  0
  5 16  1  0
 16 17  2  0
 17 18  1  0
 18 19  1  0
 19 20  2  0
 19 21  1  0
 18 22  2  0
 22 23  1  0
 22  4  1  0
M  END
$$$$

     RDKit          2D

 24 24  0  0  0  0  0  0  0  0999 V2000
    3.0000    0.0000    0.0000 C   0  0  0  0  0  0  0  0  0  0  0  0
    1.5000    0.0000    0.0000 C   0  0  0  0  0  0  0  0  0  0  0  0
    0.7500   -1.2990    0.0000 C   0  0  0  0  0  0  0  0  0  0  0  0
    1.5000   -2.5981    0.0000 C   0  0  0  0  0  0  0  0  0  0  0  0
    3.0000   -2.5981    0.0000 O   0  0  0  0  0  0  0  0  0  0  0  0
    0.7500   -3.8971    0.0000 O   0  0  0  0  0  0  0  0  0  0  0  0
   -0.7500   -1.2990    0.0000 C   0  0  0  0  0  0  0  0  0  0  0  0
   -1.5000    0.0000    0.0000 C   0  0  0  0  0  0  0  0  0  0  0  0
   -0.7500    1.2990    0.0000 C   0  0  0  0  0  0  0  0  0  0  0  0
   -1.5000    2.5981    0.0000 C   0  0  0  0  0  0  0  0  0  0  0  0
   -2.7990    1.8481    0.0000 F   0  0  0  0  0  0  0  0  0  0  0  0
   -2.2500    3.8971    0.0000 C   0  0  0  0  0  0  0  0  0  0  0  0
   -3.0000    5.1962    0.0000 F   0  0  0  0  0  0  0  0  0  0  0  0
   -3.5490    3.1471    0.0000 F   0  0  0  0  0  0  0  0  0  0  0  0
   -1.5426    4.4302    0.0000 F   0  0  0  0  0  0  0  0  0  0  0  0
   -0.2010    3.3481    0.0000 C   0  0  0  0  0  0  0  0  0  0  0  0
    1.0981    4.0981    0.0000 F   0  0  0  0  0  0  0  0  0  0  0  0
    0.5587    2.5615    0.0000 F   0  0  0  0  0  0  0  0  0  0  0  0
   -0.5470    4.1634    0.0000 F   0  0  0  0  0  0  0  0  0  0  0  0
    0.7500    1.2990    0.0000 C   0  0  0  0  0  0  0  0  0  0  0  0
    1.5000    2.5981    0.0000 S   0  0  0  0  0  0  0  0  0  0  0  0
    3.0000    2.5981    0.0000 C   0  0  0  0  0  0  0  0  0  0  0  0
    3.7500    3.8971    0.0000 C   0  0  0  0  0  0  0  0  0  0  0  0
    3.7500    1.2990    0.0000 C   0  0  0  0  0  0  0  0  0  0  0  0
  1  2  1  0
  2  3  2  0
  3  4  1  0
  4  5  2  0
  4  6  1  0
  3  7  1  0
  7  8  2  0
  8  9  1  0
  9 10  1  0
 10 11  1  0
 10 12  1  0
 12 13  1  0
 12 14  1  0
 12 15  1  0
 10 16  1  0
 16 17  1  0
 16 18  1  0
 16 19  1  0
  9 20  2  0
 20 21  1  0
 21 22  1  0
 22 23  1  0
 22 24  1  0
 20  2  1  0
M  END
$$$$

     RDKit          2D

 26 26  0  0  0  0  0  0  0  0999 V2000
    3.7500    1.2990    0.0000 C   0  0  0  0  0  0  0  0  0  0  0  0
    3.0000    0.0000    0.0000 C   0  0  0  0  0  0  0  0  0  0  0  0
    1.5000    0.0000    0.0000 C   0  0  0  0  0  0  0  0  0  0  0  0
    0.7500   -1.2990    0.0000 C   0  0  0  0  0  0  0  0  0  0  0  0
    1.5000   -2.5981    0.0000 C   0  0  0  0  0  0  0  0  0  0  0  0
    3.0000   -2.5981    0.0000 O   0  0  0  0  0  0  0  0  0  0  0  0
    0.7500   -3.8971    0.0000 O   0  0  0  0  0  0  0  0  0  0  0  0
   -0.7500   -1.2990    0.0000 C   0  0  0  0  0  0  0  0  0  0  0  0
   -1.5000    0.0000    0.0000 C   0  0  0  0  0  0  0  0  0  0  0  0
   -0.7500    1.2990    0.0000 C   0  0  0  0  0  0  0  0  0  0  0  0
   -1.5000    2.5981    0.0000 C   0  0  0  0  0  0  0  0  0  0  0  0
   -2.7990    1.8481    0.0000 F   0  0  0  0  0  0  0  0  0  0  0  0
   -2.2500    3.8971    0.0000 C   0  0  0  0  0  0  0  0  0  0  0  0
   -3.0000    5.1962    0.0000 F   0  0  0  0  0  0  0  0  0  0  0  0
   -3.5490    3.1471    0.0000 F   0  0  0  0  0  0  0  0  0  0  0  0
   -1.5426    4.4302    0.0000 F   0  0  0  0  0  0  0  0  0  0  0  0
   -0.2010    3.3481    0.0000 C   0  0  0  0  0  0  0  0  0  0  0  0
    1.0981    4.0981    0.0000 F   0  0  0  0  0  0  0  0  0  0  0  0
   -0.5470    4.1634    0.0000 F   0  0  0  0  0  0  0  0  0  0  0  0
    0.5587    2.5615    0.0000 F   0  0  0  0  0  0  0  0  0  0  0  0
    0.7500    1.2990    0.0000 C   0  0  0  0  0  0  0  0  0  0  0  0
    1.5000    2.5981    0.0000 S   0  0  0  0  0  0  0  0  0  0  0  0
    3.0000    2.5981    0.0000 C   0  0  0  0  0  0  0  0  0  0  0  0
    3.7500    3.8971    0.0000 C   0  0  0  0  0  0  0  0  0  0  0  0
    5.2500    3.8971    0.0000 C   0  0  0  0  0  0  0  0  0  0  0  0
    3.0000    5.1962    0.0000 C   0  0  0  0  0  0  0  0  0  0  0  0
  1  2  1  0
  2  3  1  0
  3  4  2  0
  4  5  1  0
  5  6  2  0
  5  7  1  0
  4  8  1  0
  8  9  2  0
  9 10  1  0
 10 11  1  0
 11 12  1  0
 11 13  1  0
 13 14  1  0
 13 15  1  0
 13 16  1  0
 11 17  1  0
 17 18  1  0
 17 19  1  0
 17 20  1  0
 10 21  2  0
 21 22  1  0
 22 23  1  0
 23 24  1  0
 24 25  1  0
 24 26  1  0
 21  3  1  0
M  END
$$$$

     RDKit          2D

 24 24  0  0  0  0  0  0  0  0999 V2000
    5.2500   -1.2990    0.0000 C   0  0  0  0  0  0  0  0  0  0  0  0
    3.7500   -1.2990    0.0000 C   0  0  0  0  0  0  0  0  0  0  0  0
    3.0000    0.0000    0.0000 S   0  0  0  0  0  0  0  0  0  0  0  0
    3.7500    1.2990    0.0000 O   0  0  0  0  0  0  0  0  0  0  0  0
    1.5000    0.0000    0.0000 C   0  0  0  0  0  0  0  0  0  0  0  0
    0.7500   -1.2990    0.0000 C   0  0  0  0  0  0  0  0  0  0  0  0
    1.5000   -2.5981    0.0000 C   0  0  0  0  0  0  0  0  0  0  0  0
    2.7990   -1.8481    0.0000 F   0  0  0  0  0  0  0  0  0  0  0  0
    2.2500   -3.8971    0.0000 C   0  0  0  0  0  0  0  0  0  0  0  0
    3.0000   -5.1962    0.0000 F   0  0  0  0  0  0  0  0  0  0  0  0
    3.5490   -3.1471    0.0000 F   0  0  0  0  0  0  0  0  0  0  0  0
    1.5426   -4.4302    0.0000 F   0  0  0  0  0  0  0  0  0  0  0  0
    0.2010   -3.3481    0.0000 C   0  0  0  0  0  0  0  0  0  0  0  0
   -1.0981   -4.0981    0.0000 F   0  0  0  0  0  0  0  0  0  0  0  0
    0.5470   -4.1634    0.0000 F   0  0  0  0  0  0  0  0  0  0  0  0
   -0.8411   -2.2691    0.0000 F   0  0  0  0  0  0  0  0  0  0  0  0
   -0.7500   -1.2990    0.0000 C   0  0  0  0  0  0  0  0  0  0  0  0
   -1.5000    0.0000    0.0000 C   0  0  0  0  0  0  0  0  0  0  0  0
   -0.7500    1.2990    0.0000 C   0  0  0  0  0  0  0  0  0  0  0  0
   -1.5000    2.5981    0.0000 C   0  0  0  0  0  0  0  0  0  0  0  0
   -3.0000    2.5981    0.0000 O   0  0  0  0  0  0  0  0  0  0  0  0
   -0.7500    3.8971    0.0000 O   0  0  0  0  0  0  0  0  0  0  0  0
    0.7500    1.2990    0.0000 C   0  0  0  0  0  0  0  0  0  0  0  0
    1.5000    2.5981    0.0000 C   0  0  0  0  0  0  0  0  0  0  0  0
  1  2  1  0
  2  3  1  0
  3  4  2  0
  3  5  1  0
  5  6  2  0
  6  7  1  0
  7  8  1  0
  7  9  1  0
  9 10  1  0
  9 11  1  0
  9 12  1  0
  7 13  1  0
 13 14  1  0
 13 15  1  0
 13 16  1  0
  6 17  1  0
 17 18  2  0
 18 19  1  0
 19 20  1  0
 20 21  2  0
 20 22  1  0
 19 23  2  0
 23 24  1  0
 23  5  1  0
M  END
$$$$

     RDKit          2D

 27 27  0  0  0  0  0  0  0  0999 V2000
    3.7500    1.2990    0.0000 C   0  0  0  0  0  0  0  0  0  0  0  0
    3.0000    0.0000    0.0000 C   0  0  0  0  0  0  0  0  0  0  0  0
    1.5000    0.0000    0.0000 C   0  0  0  0  0  0  0  0  0  0  0  0
    0.7500   -1.2990    0.0000 C   0  0  0  0  0  0  0  0  0  0  0  0
    1.5000   -2.5981    0.0000 C   0  0  0  0  0  0  0  0  0  0  0  0
    3.0000   -2.5981    0.0000 O   0  0  0  0  0  0  0  0  0  0  0  0
    0.7500   -3.8971    0.0000 O   0  0  0  0  0  0  0  0  0  0  0  0
   -0.7500   -1.2990    0.0000 C   0  0  0  0  0  0  0  0  0  0  0  0
   -1.5000    0.0000    0.0000 C   0  0  0  0  0  0  0  0  0  0  0  0
   -0.7500    1.2990    0.0000 C   0  0  0  0  0  0  0  0  0  0  0  0
   -1.5000    2.5981    0.0000 C   0  0  0  0  0  0  0  0  0  0  0  0
   -2.7990    1.8481    0.0000 F   0  0  0  0  0  0  0  0  0  0  0  0
   -2.2500    3.8971    0.0000 C   0  0  0  0  0  0  0  0  0  0  0  0
   -3.0000    5.1962    0.0000 F   0  0  0  0  0  0  0  0  0  0  0  0
   -3.5490    3.1471    0.0000 F   0  0  0  0  0  0  0  0  0  0  0  0
   -1.5426    4.4302    0.0000 F   0  0  0  0  0  0  0  0  0  0  0  0
   -0.2010    3.3481    0.0000 C   0  0  0  0  0  0  0  0  0  0  0  0
    0.5661    3.7909    0.0000 F   0  0  0  0  0  0  0  0  0  0  0  0
    0.5587    2.5615    0.0000 F   0  0  0  0  0  0  0  0  0  0  0  0
   -0.5470    4.1634    0.0000 F   0  0  0  0  0  0  0  0  0  0  0  0
    0.7500    1.2990    0.0000 C   0  0  0  0  0  0  0  0  0  0  0  0
    1.5000    2.5981    0.0000 S   0  0  0  0  0  0  0  0  0  0  0  0
    0.9266    3.1519    0.0000 O   0  0  0  0  0  0  0  0  0  0  0  0
    2.7990    1.8481    0.0000 O   0  0  0  0  0  0  0  0  0  0  0  0
    2.2500    3.8971    0.0000 C   0  0  0  0  0  0  0  0  0  0  0  0
    1.5000    5.1962    0.0000 C   0  0  0  0  0  0  0  0  0  0  0  0
    3.7500    3.8971    0.0000 C   0  0  0  0  0  0  0  0  0  0  0  0
  1  2  1  0
  2  3  1  0
  3  4  2  0
  4  5  1  0
  5  6  2  0
  5  7  1  0
  4  8  1  0
  8  9  2  0
  9 10  1  0
 10 11  1  0
 11 12  1  0
 11 13  1  0
 13 14  1  0
 13 15  1  0
 13 16  1  0
 11 17  1  0
 17 18  1  0
 17 19  1  0
 17 20  1  0
 10 21  2  0
 21 22  1  0
 22 23  2  0
 22 24  2  0
 22 25  1  0
 25 26  1  0
 25 27  1  0
 21  3  1  0
M  END
$$$$

     RDKit          2D

 27 27  0  0  0  0  0  0  0  0999 V2000
    3.7500    1.2990    0.0000 C   0  0  0  0  0  0  0  0  0  0  0  0
    3.0000    0.0000    0.0000 C   0  0  0  0  0  0  0  0  0  0  0  0
    1.5000    0.0000    0.0000 C   0  0  0  0  0  0  0  0  0  0  0  0
    0.7500   -1.2990    0.0000 C   0  0  0  0  0  0  0  0  0  0  0  0
    1.5000   -2.5981    0.0000 C   0  0  0  0  0  0  0  0  0  0  0  0
    3.0000   -2.5981    0.0000 O   0  0  0  0  0  0  0  0  0  0  0  0
    0.7500   -3.8971    0.0000 O   0  0  0  0  0  0  0  0  0  0  0  0
   -0.7500   -1.2990    0.0000 C   0  0  0  0  0  0  0  0  0  0  0  0
   -1.5000    0.0000    0.0000 C   0  0  0  0  0  0  0  0  0  0  0  0
   -0.7500    1.2990    0.0000 C   0  0  0  0  0  0  0  0  0  0  0  0
   -1.5000    2.5981    0.0000 C   0  0  0  0  0  0  0  0  0  0  0  0
   -2.7990    1.8481    0.0000 F   0  0  0  0  0  0  0  0  0  0  0  0
   -2.2500    3.8971    0.0000 C   0  0  0  0  0  0  0  0  0  0  0  0
   -3.0000    5.1962    0.0000 F   0  0  0  0  0  0  0  0  0  0  0  0
   -3.5490    3.1471    0.0000 F   0  0  0  0  0  0  0  0  0  0  0  0
   -1.5426    4.4302    0.0000 F   0  0  0  0  0  0  0  0  0  0  0  0
   -0.2010    3.3481    0.0000 C   0  0  0  0  0  0  0  0  0  0  0  0
    0.4357    3.8278    0.0000 F   0  0  0  0  0  0  0  0  0  0  0  0
   -0.5470    4.1634    0.0000 F   0  0  0  0  0  0  0  0  0  0  0  0
    0.5587    2.5615    0.0000 F   0  0  0  0  0  0  0  0  0  0  0  0
    0.7500    1.2990    0.0000 C   0  0  0  0  0  0  0  0  0  0  0  0
    1.5000    2.5981    0.0000 S   0  0  0  0  0  0  0  0  0  0  0  0
    1.1885    3.3319    0.0000 O   0  0  0  0  0  0  0  0  0  0  0  0
    3.0000    2.5981    0.0000 C   0  0  0  0  0  0  0  0  0  0  0  0
    3.7500    3.8971    0.0000 C   0  0  0  0  0  0  0  0  0  0  0  0
    5.2500    3.8971    0.0000 C   0  0  0  0  0  0  0  0  0  0  0  0
    3.0000    5.1962    0.0000 C   0  0  0  0  0  0  0  0  0  0  0  0
  1  2  1  0
  2  3  1  0
  3  4  2  0
  4  5  1  0
  5  6  2  0
  5  7  1  0
  4  8  1  0
  8  9  2  0
  9 10  1  0
 10 11  1  0
 11 12  1  0
 11 13  1  0
 13 14  1  0
 13 15  1  0
 13 16  1  0
 11 17  1  0
 17 18  1  0
 17 19  1  0
 17 20  1  0
 10 21  2  0
 21 22  1  0
 22 23  2  0
 22 24  1  0
 24 25  1  0
 25 26  1  0
 25 27  1  0
 21  3  1  0
M  END
$$$$

     RDKit          2D

 38 40  0  0  0  0  0  0  0  0999 V2000
    3.0000    0.0000    0.0000 C   0  0  0  0  0  0  0  0  0  0  0  0
    1.5000    0.0000    0.0000 C   0  0  0  0  0  0  0  0  0  0  0  0
    0.7500   -1.2990    0.0000 C   0  0  0  0  0  0  0  0  0  0  0  0
   -0.7500   -1.2990    0.0000 C   0  0  0  0  0  0  0  0  0  0  0  0
   -1.5000   -2.5981    0.0000 C   0  0  0  0  0  0  0  0  0  0  0  0
   -0.2010   -3.3481    0.0000 F   0  0  0  0  0  0  0  0  0  0  0  0
   -2.2500   -3.8971    0.0000 C   0  0  0  0  0  0  0  0  0  0  0  0
   -3.0000   -5.1962    0.0000 F   0  0  0  0  0  0  0  0  0  0  0  0
   -0.9510   -4.6471    0.0000 F   0  0  0  0  0  0  0  0  0  0  0  0
   -3.0653   -3.5511    0.0000 F   0  0  0  0  0  0  0  0  0  0  0  0
   -2.7990   -1.8481    0.0000 C   0  0  0  0  0  0  0  0  0  0  0  0
   -4.0981   -1.0981    0.0000 F   0  0  0  0  0  0  0  0  0  0  0  0
   -3.3321   -2.5554    0.0000 F   0  0  0  0  0  0  0  0  0  0  0  0
   -2.3857   -0.4062    0.0000 F   0  0  0  0  0  0  0  0  0  0  0  0
   -1.5000    0.0000    0.0000 C   0  0  0  0  0  0  0  0  0  0  0  0
   -0.7500    1.2990    0.0000 C   0  0  0  0  0  0  0  0  0  0  0  0
   -1.5000    2.5981    0.0000 C   0  0  0  0  0  0  0  0  0  0  0  0
    0.7500    1.2990    0.0000 C   0  0  0  0  0  0  0  0  0  0  0  0
    1.5000    2.5981    0.0000 N   0  0  0  0  0  0  0  0  0  0  0  0
    3.0000    2.5981    0.0000 C   0  0  0  0  0  0  0  0  0  0  0  0
    3.7500    1.2990    0.0000 O   0  0  0  0  0  0  0  0  0  0  0  0
    3.7500    3.8971    0.0000 C   0  0  0  0  0  0  0  0  0  0  0  0
    5.2500    3.8971    0.0000 C   0  0  0  0  0  0  0  0  0  0  0  0
    6.0000    5.1962    0.0000 C   0  0  0  0  0  0  0  0  0  0  0  0
    5.2500    6.4952    0.0000 C   0  0  0  0  0  0  0  0  0  0  0  0
    3.7500    6.4952    0.0000 C   0  0  0  0  0  0  0  0  0  0  0  0
    3.0000    7.7942    0.0000 N   0  0  0  0  0  0  0  0  0  0  0  0
    3.7500    9.0933    0.0000 C   0  0  0  0  0  0  0  0  0  0  0  0
    5.2500    9.0933    0.0000 O   0  0  0  0  0  0  0  0  0  0  0  0
    3.0000   10.3923    0.0000 C   0  0  0  0  0  0  0  0  0  0  0  0
    3.7500   11.6913    0.0000 C   0  0  0  0  0  0  0  0  0  0  0  0
    3.0000   12.9904    0.0000 C   0  0  0  0  0  0  0  0  0  0  0  0
    1.5000   12.9904    0.0000 C   0  0  0  0  0  0  0  0  0  0  0  0
    0.7500   14.2894    0.0000 F   0  0  0  0  0  0  0  0  0  0  0  0
    0.7500   11.6913    0.0000 C   0  0  0  0  0  0  0  0  0  0  0  0
    1.5000   10.3923    0.0000 C   0  0  0  0  0  0  0  0  0  0  0  0
    0.7500    9.0933    0.0000 F   0  0  0  0  0  0  0  0  0  0  0  0
    3.0000    5.1962    0.0000 C   0  0  0  0  0  0  0  0  0  0  0  0
  1  2  1  0
  2  3  2  0
  3  4  1  0
  4  5  1  0
  5  6  1  0
  5  7  1  0
  7  8  1  0
  7  9  1  0
  7 10  1  0
  5 11  1  0
 11 12  1  0
 11 13  1  0
 11 14  1  0
  4 15  2  0
 15 16  1  0
 16 17  1  0
 16 18  2  0
 18 19  1  0
 19 20  1  0
 20 21  2  0
 20 22  1  0
 22 23  2  0
 23 24  1  0
 24 25  2  0
 25 26  1  0
 26 27  1  0
 27 28  1  0
 28 29  2  0
 28 30  1  0
 30 31  2  0
 31 32  1  0
 32 33  2  0
 33 34  1  0
 33 35  1  0
 35 36  2  0
 36 37  1  0
 26 38  2  0
 18  2  1  0
 38 22  1  0
 36 30  1  0
M  END
$$$$

     RDKit          2D

 38 40  0  0  0  0  0  0  0  0999 V2000
    3.0000    0.0000    0.0000 C   0  0  0  0  0  0  0  0  0  0  0  0
    1.5000    0.0000    0.0000 C   0  0  0  0  0  0  0  0  0  0  0  0
    0.7500   -1.2990    0.0000 C   0  0  0  0  0  0  0  0  0  0  0  0
   -0.7500   -1.2990    0.0000 C   0  0  0  0  0  0  0  0  0  0  0  0
   -1.5000   -2.5981    0.0000 C   0  0  0  0  0  0  0  0  0  0  0  0
   -0.2010   -3.3481    0.0000 F   0  0  0  0  0  0  0  0  0  0  0  0
   -2.2500   -3.8971    0.0000 C   0  0  0  0  0  0  0  0  0  0  0  0
   -3.0000   -5.1962    0.0000 F   0  0  0  0  0  0  0  0  0  0  0  0
   -0.9510   -4.6471    0.0000 F   0  0  0  0  0  0  0  0  0  0  0  0
   -3.0653   -3.5511    0.0000 F   0  0  0  0  0  0  0  0  0  0  0  0
   -2.7990   -1.8481    0.0000 C   0  0  0  0  0  0  0  0  0  0  0  0
   -4.0981   -1.0981    0.0000 F   0  0  0  0  0  0  0  0  0  0  0  0
   -3.3321   -2.5554    0.0000 F   0  0  0  0  0  0  0  0  0  0  0  0
   -2.3857   -0.4062    0.0000 F   0  0  0  0  0  0  0  0  0  0  0  0
   -1.5000    0.0000    0.0000 C   0  0  0  0  0  0  0  0  0  0  0  0
   -0.7500    1.2990    0.0000 C   0  0  0  0  0  0  0  0  0  0  0  0
   -1.5000    2.5981    0.0000 C   0  0  0  0  0  0  0  0  0  0  0  0
    0.7500    1.2990    0.0000 C   0  0  0  0  0  0  0  0  0  0  0  0
    1.5000    2.5981    0.0000 N   0  0  0  0  0  0  0  0  0  0  0  0
    3.0000    2.5981    0.0000 C   0  0  0  0  0  0  0  0  0  0  0  0
    3.7500    1.2990    0.0000 O   0  0  0  0  0  0  0  0  0  0  0  0
    3.7500    3.8971    0.0000 C   0  0  0  0  0  0  0  0  0  0  0  0
    5.2500    3.8971    0.0000 C   0  0  0  0  0  0  0  0  0  0  0  0
    6.0000    5.1962    0.0000 C   0  0  0  0  0  0  0  0  0  0  0  0
    5.2500    6.4952    0.0000 C   0  0  0  0  0  0  0  0  0  0  0  0
    3.7500    6.4952    0.0000 C   0  0  0  0  0  0  0  0  0  0  0  0
    3.0000    7.7942    0.0000 N   0  0  0  0  0  0  0  0  0  0  0  0
    3.7500    9.0933    0.0000 C   0  0  0  0  0  0  0  0  0  0  0  0
    5.2500    9.0933    0.0000 O   0  0  0  0  0  0  0  0  0  0  0  0
    3.0000   10.3923    0.0000 C   0  0  0  0  0  0  0  0  0  0  0  0
    3.7500   11.6913    0.0000 C   0  0  0  0  0  0  0  0  0  0  0  0
    3.0000   12.9904    0.0000 C   0  0  0  0  0  0  0  0  0  0  0  0
    1.5000   12.9904    0.0000 C   0  0  0  0  0  0  0  0  0  0  0  0
    0.7500   14.2894    0.0000 Cl  0  0  0  0  0  0  0  0  0  0  0  0
    0.7500   11.6913    0.0000 C   0  0  0  0  0  0  0  0  0  0  0  0
    1.5000   10.3923    0.0000 C   0  0  0  0  0  0  0  0  0  0  0  0
    0.7500    9.0933    0.0000 Cl  0  0  0  0  0  0  0  0  0  0  0  0
    3.0000    5.1962    0.0000 C   0  0  0  0  0  0  0  0  0  0  0  0
  1  2  1  0
  2  3  2  0
  3  4  1  0
  4  5  1  0
  5  6  1  0
  5  7  1  0
  7  8  1  0
  7  9  1  0
  7 10  1  0
  5 11  1  0
 11 12  1  0
 11 13  1  0
 11 14  1  0
  4 15  2  0
 15 16  1  0
 16 17  1  0
 16 18  2  0
 18 19  1  0
 19 20  1  0
 20 21  2  0
 20 22  1  0
 22 23  2  0
 23 24  1  0
 24 25  2  0
 25 26  1  0
 26 27  1  0
 27 28  1  0
 28 29  2  0
 28 30  1  0
 30 31  2  0
 31 32  1  0
 32 33  2  0
 33 34  1  0
 33 35  1  0
 35 36  2  0
 36 37  1  0
 26 38  2  0
 18  2  1  0
 38 22  1  0
 36 30  1  0
M  END
$$$$

     RDKit          2D

 11 10  0  0  0  0  0  0  0  0999 V2000
   -1.2990    0.7500    0.0000 F   0  0  0  0  0  0  0  0  0  0  0  0
    0.0000    0.0000    0.0000 C   0  0  0  0  0  0  0  0  0  0  0  0
   -0.0000   -1.5000    0.0000 F   0  0  0  0  0  0  0  0  0  0  0  0
    1.2990    0.7500    0.0000 C   0  0  0  0  0  0  0  0  0  0  0  0
    2.0490   -0.5490    0.0000 F   0  0  0  0  0  0  0  0  0  0  0  0
    0.5490    2.0490    0.0000 F   0  0  0  0  0  0  0  0  0  0  0  0
    2.5981    1.5000    0.0000 O   0  0  0  0  0  0  0  0  0  0  0  0
    2.5981    3.0000    0.0000 C   0  0  0  0  0  0  0  0  0  0  0  0
    2.5981    4.5000    0.0000 F   0  0  0  0  0  0  0  0  0  0  0  0
    4.0981    3.0000    0.0000 F   0  0  0  0  0  0  0  0  0  0  0  0
    1.0981    3.0000    0.0000 F   0  0  0  0  0  0  0  0  0  0  0  0
  1  2  1  0
  2  3  1  0
  2  4  1  0
  4  5  1  0
  4  6  1  0
  4  7  1  0
  7  8  1  0
  8  9  1  0
  8 10  1  0
  8 11  1  0
M  END
$$$$

     RDKit          2D

 18 17  0  0  0  0  0  0  0  0999 V2000
   -1.5000    0.0000    0.0000 F   0  0  0  0  0  0  0  0  0  0  0  0
    0.0000    0.0000    0.0000 C   0  0  0  0  0  0  0  0  0  0  0  0
    0.0000    1.5000    0.0000 F   0  0  0  0  0  0  0  0  0  0  0  0
   -0.0972   -0.7912    0.0000 F   0  0  0  0  0  0  0  0  0  0  0  0
    1.5000   -0.0000    0.0000 O   0  0  0  0  0  0  0  0  0  0  0  0
    2.2500   -1.2990    0.0000 C   0  0  0  0  0  0  0  0  0  0  0  0
    3.5490   -0.5490    0.0000 C   0  0  0  0  0  0  0  0  0  0  0  0
    4.8481    0.2010    0.0000 F   0  0  0  0  0  0  0  0  0  0  0  0
    4.4518   -1.7470    0.0000 F   0  0  0  0  0  0  0  0  0  0  0  0
    2.7990    0.7500    0.0000 F   0  0  0  0  0  0  0  0  0  0  0  0
    0.9510   -2.0490    0.0000 C   0  0  0  0  0  0  0  0  0  0  0  0
   -0.3481   -2.7990    0.0000 F   0  0  0  0  0  0  0  0  0  0  0  0
    0.3314   -1.5474    0.0000 F   0  0  0  0  0  0  0  0  0  0  0  0
    1.5370   -3.4298    0.0000 F   0  0  0  0  0  0  0  0  0  0  0  0
    3.0000   -2.5981    0.0000 C   0  0  0  0  0  0  0  0  0  0  0  0
    3.7500   -3.8971    0.0000 F   0  0  0  0  0  0  0  0  0  0  0  0
    1.8021   -3.5008    0.0000 F   0  0  0  0  0  0  0  0  0  0  0  0
    4.3808   -2.0120    0.0000 F   0  0  0  0  0  0  0  0  0  0  0  0
  1  2  1  0
  2  3  1  0
  2  4  1  0
  2  5  1  0
  5  6  1  0
  6  7  1  0
  7  8  1  0
  7  9  1  0
  7 10  1  0
  6 11  1  0
 11 12  1  0
 11 13  1  0
 11 14  1  0
  6 15  1  0
 15 16  1  0
 15 17  1  0
 15 18  1  0
M  END
$$$$

     RDKit          2D

 55 54  0  0  0  0  0  0  0  0999 V2000
   -1.5000    0.0000    0.0000 F   0  0  0  0  0  0  0  0  0  0  0  0
    0.0000    0.0000    0.0000 C   0  0  0  0  0  0  0  0  0  0  0  0
    0.0000    1.5000    0.0000 F   0  0  0  0  0  0  0  0  0  0  0  0
   -0.0000   -1.5000    0.0000 F   0  0  0  0  0  0  0  0  0  0  0  0
    1.5000    0.0000    0.0000 C   0  0  0  0  0  0  0  0  0  0  0  0
    1.5000   -1.5000    0.0000 F   0  0  0  0  0  0  0  0  0  0  0  0
    1.5000    1.5000    0.0000 F   0  0  0  0  0  0  0  0  0  0  0  0
    3.0000    0.0000    0.0000 O   0  0  0  0  0  0  0  0  0  0  0  0
    3.7500    1.2990    0.0000 C   0  0  0  0  0  0  0  0  0  0  0  0
    2.4510    2.0490    0.0000 F   0  0  0  0  0  0  0  0  0  0  0  0
    5.0490    0.5490    0.0000 F   0  0  0  0  0  0  0  0  0  0  0  0
    4.5000    2.5981    0.0000 C   0  0  0  0  0  0  0  0  0  0  0  0
    5.7990    1.8481    0.0000 F   0  0  0  0  0  0  0  0  0  0  0  0
    3.2010    3.3481    0.0000 O   0  0  0  0  0  0  0  0  0  0  0  0
    3.2010    4.8481    0.0000 C   0  0  0  0  0  0  0  0  0  0  0  0
    4.6898    5.0309    0.0000 F   0  0  0  0  0  0  0  0  0  0  0  0
    1.7010    4.8481    0.0000 F   0  0  0  0  0  0  0  0  0  0  0  0
    3.2010    6.3481    0.0000 C   0  0  0  0  0  0  0  0  0  0  0  0
    4.7010    6.3481    0.0000 F   0  0  0  0  0  0  0  0  0  0  0  0
    1.7010    6.3481    0.0000 O   0  0  0  0  0  0  0  0  0  0  0  0
    0.9510    7.6471    0.0000 C   0  0  0  0  0  0  0  0  0  0  0  0
    2.1489    8.5499    0.0000 F   0  0  0  0  0  0  0  0  0  0  0  0
   -0.3481    6.8971    0.0000 F   0  0  0  0  0  0  0  0  0  0  0  0
    0.2010    8.9462    0.0000 C   0  0  0  0  0  0  0  0  0  0  0  0
    1.5000    9.6962    0.0000 F   0  0  0  0  0  0  0  0  0  0  0  0
   -1.0981    8.1962    0.0000 O   0  0  0  0  0  0  0  0  0  0  0  0
   -2.3971    8.9462    0.0000 C   0  0  0  0  0  0  0  0  0  0  0  0
   -1.8111   10.3269    0.0000 F   0  0  0  0  0  0  0  0  0  0  0  0
   -3.1471    7.6471    0.0000 F   0  0  0  0  0  0  0  0  0  0  0  0
   -3.6962    9.6962    0.0000 C   0  0  0  0  0  0  0  0  0  0  0  0
   -2.9462   10.9952    0.0000 F   0  0  0  0  0  0  0  0  0  0  0  0
   -4.4462    8.3971    0.0000 O   0  0  0  0  0  0  0  0  0  0  0  0
   -5.9462    8.3971    0.0000 C   0  0  0  0  0  0  0  0  0  0  0  0
   -6.0433    9.1883    0.0000 F   0  0  0  0  0  0  0  0  0  0  0  0
   -5.9462    6.8971    0.0000 F   0  0  0  0  0  0  0  0  0  0  0  0
   -7.4462    8.3971    0.0000 C   0  0  0  0  0  0  0  0  0  0  0  0
   -8.9462    8.3971    0.0000 F   0  0  0  0  0  0  0  0  0  0  0  0
   -7.4462    6.8971    0.0000 F   0  0  0  0  0  0  0  0  0  0  0  0
   -7.4462    9.8971    0.0000 Br  0  0  0  0  0  0  0  0  0  0  0  0
   -4.9952   10.4462    0.0000 C   0  0  0  0  0  0  0  0  0  0  0  0
   -6.2942   11.1962    0.0000 F   0  0  0  0  0  0  0  0  0  0  0  0
   -4.2452   11.7452    0.0000 F   0  0  0  0  0  0  0  0  0  0  0  0
   -5.6147    9.9445    0.0000 F   0  0  0  0  0  0  0  0  0  0  0  0
   -0.5490   10.2452    0.0000 C   0  0  0  0  0  0  0  0  0  0  0  0
   -1.2990   11.5442    0.0000 F   0  0  0  0  0  0  0  0  0  0  0  0
    0.7500   10.9952    0.0000 F   0  0  0  0  0  0  0  0  0  0  0  0
   -2.0306   10.0107    0.0000 F   0  0  0  0  0  0  0  0  0  0  0  0
    3.2010    7.8481    0.0000 C   0  0  0  0  0  0  0  0  0  0  0  0
    3.2010    9.3481    0.0000 F   0  0  0  0  0  0  0  0  0  0  0  0
    4.7010    7.8481    0.0000 F   0  0  0  0  0  0  0  0  0  0  0  0
    1.8006    8.3857    0.0000 F   0  0  0  0  0  0  0  0  0  0  0  0
    5.2500    3.8971    0.0000 C   0  0  0  0  0  0  0  0  0  0  0  0
    6.0000    5.1962    0.0000 F   0  0  0  0  0  0  0  0  0  0  0  0
    6.5490    3.1471    0.0000 F   0  0  0  0  0  0  0  0  0  0  0  0
    4.3061    5.0629    0.0000 F   0  0  0  0  0  0  0  0  0  0  0  0
  1  2  1  0
  2  3  1  0
  2  4  1  0
  2  5  1  0
  5  6  1  0
  5  7  1  0
  5  8  1  0
  8  9  1  0
  9 10  1  0
  9 11  1  0
  9 12  1  0
 12 13  1  0
 12 14  1  0
 14 15  1  0
 15 16  1  0
 15 17  1  0
 15 18  1  0
 18 19  1  0
 18 20  1  0
 20 21  1  0
 21 22  1  0
 21 23  1  0
 21 24  1  0
 24 25  1  0
 24 26  1  0
 26 27  1  0
 27 28  1  0
 27 29  1  0
 27 30  1  0
 30 31  1  0
 30 32  1  0
 32 33  1  0
 33 34  1  0
 33 35  1  0
 33 36  1  0
 36 37  1  0
 36 38  1  0
 36 39  1  0
 30 40  1  0
 40 41  1  0
 40 42  1  0
 40 43  1  0
 24 44  1  0
 44 45  1  0
 44 46  1  0
 44 47  1  0
 18 48  1  0
 48 49  1  0
 48 50  1  0
 48 51  1  0
 12 52  1  0
 52 53  1  0
 52 54  1  0
 52 55  1  0
M  END
$$$$

     RDKit          2D

 22 21  0  0  0  0  0  0  0  0999 V2000
    0.0000    0.0000    0.0000 C   0  0  0  0  0  0  0  0  0  0  0  0
    1.2990    0.7500    0.0000 C   0  0  0  0  0  0  0  0  0  0  0  0
    2.5981   -0.0000    0.0000 C   0  0  0  0  0  0  0  0  0  0  0  0
    3.8971    0.7500    0.0000 O   0  0  0  0  0  0  0  0  0  0  0  0
    5.1962   -0.0000    0.0000 C   0  0  0  0  0  0  0  0  0  0  0  0
    6.4952    0.7500    0.0000 C   0  0  0  0  0  0  0  0  0  0  0  0
    5.7452    2.0490    0.0000 F   0  0  0  0  0  0  0  0  0  0  0  0
    7.2452   -0.5490    0.0000 O   0  0  0  0  0  0  0  0  0  0  0  0
    6.4952   -1.8481    0.0000 C   0  0  0  0  0  0  0  0  0  0  0  0
    5.1962   -1.0981    0.0000 F   0  0  0  0  0  0  0  0  0  0  0  0
    7.7942   -2.5981    0.0000 F   0  0  0  0  0  0  0  0  0  0  0  0
    5.7452   -3.1471    0.0000 C   0  0  0  0  0  0  0  0  0  0  0  0
    7.0442   -3.8971    0.0000 F   0  0  0  0  0  0  0  0  0  0  0  0
    4.4462   -2.3971    0.0000 F   0  0  0  0  0  0  0  0  0  0  0  0
    4.9952   -4.4462    0.0000 C   0  0  0  0  0  0  0  0  0  0  0  0
    4.2452   -5.7452    0.0000 F   0  0  0  0  0  0  0  0  0  0  0  0
    3.6962   -3.6962    0.0000 F   0  0  0  0  0  0  0  0  0  0  0  0
    6.2942   -5.1962    0.0000 F   0  0  0  0  0  0  0  0  0  0  0  0
    7.7942    1.5000    0.0000 C   0  0  0  0  0  0  0  0  0  0  0  0
    9.0933    2.2500    0.0000 F   0  0  0  0  0  0  0  0  0  0  0  0
    7.0442    2.7990    0.0000 F   0  0  0  0  0  0  0  0  0  0  0  0
    8.5442    0.2010    0.0000 F   0  0  0  0  0  0  0  0  0  0  0  0
  1  2  2  0
  2  3  1  0
  3  4  1  0
  4  5  1  0
  5  6  1  0
  6  7  1  0
  6  8  1  0
  8  9  1  0
  9 10  1  0
  9 11  1  0
  9 12  1  0
 12 13  1  0
 12 14  1  0
 12 15  1  0
 15 16  1  0
 15 17  1  0
 15 18  1  0
  6 19  1  0
 19 20  1  0
 19 21  1  0
 19 22  1  0
M  END
$$$$

     RDKit          2D

 26 25  0  0  0  0  0  0  0  0999 V2000
    0.0000   -0.0000    0.0000 C   0  0  0  0  0  0  0  0  0  0  0  0
    1.2990    0.7500    0.0000 C   0  0  0  0  0  0  0  0  0  0  0  0
    2.5981   -0.0000    0.0000 C   0  0  0  0  0  0  0  0  0  0  0  0
    3.8971    0.7500    0.0000 C   0  0  0  0  0  0  0  0  0  0  0  0
    5.1962   -0.0000    0.0000 C   0  0  0  0  0  0  0  0  0  0  0  0
    6.4952    0.7500    0.0000 C   0  0  0  0  0  0  0  0  0  0  0  0
    7.7942   -0.0000    0.0000 O   0  0  0  0  0  0  0  0  0  0  0  0
    9.0933    0.7500    0.0000 C   0  0  0  0  0  0  0  0  0  0  0  0
    8.9961    1.5412    0.0000 O   0  0  0  0  0  0  0  0  0  0  0  0
   10.3923   -0.0000    0.0000 C   0  0  0  0  0  0  0  0  0  0  0  0
    9.6423   -1.2990    0.0000 F   0  0  0  0  0  0  0  0  0  0  0  0
   11.1423    1.2990    0.0000 O   0  0  0  0  0  0  0  0  0  0  0  0
   10.3923    2.5981    0.0000 C   0  0  0  0  0  0  0  0  0  0  0  0
    9.6585    2.2866    0.0000 F   0  0  0  0  0  0  0  0  0  0  0  0
   11.6913    3.3481    0.0000 F   0  0  0  0  0  0  0  0  0  0  0  0
    9.6423    3.8971    0.0000 C   0  0  0  0  0  0  0  0  0  0  0  0
   10.9413    4.6471    0.0000 F   0  0  0  0  0  0  0  0  0  0  0  0
    8.3433    3.1471    0.0000 F   0  0  0  0  0  0  0  0  0  0  0  0
    8.8923    5.1962    0.0000 C   0  0  0  0  0  0  0  0  0  0  0  0
    8.1423    6.4952    0.0000 F   0  0  0  0  0  0  0  0  0  0  0  0
    7.5933    4.4462    0.0000 F   0  0  0  0  0  0  0  0  0  0  0  0
   10.1913    5.9462    0.0000 F   0  0  0  0  0  0  0  0  0  0  0  0
   11.6913   -0.7500    0.0000 C   0  0  0  0  0  0  0  0  0  0  0  0
   12.9904   -1.5000    0.0000 F   0  0  0  0  0  0  0  0  0  0  0  0
   10.9413   -2.0490    0.0000 F   0  0  0  0  0  0  0  0  0  0  0  0
   12.4413    0.5490    0.0000 F   0  0  0  0  0  0  0  0  0  0  0  0
  1  2  1  0
  2  3  1  0
  3  4  1  0
  4  5  1  0
  5  6  1  0
  6  7  1  0
  7  8  1  0
  8  9  2  0
  8 10  1  0
 10 11  1  0
 10 12  1  0
 12 13  1  0
 13 14  1  0
 13 15  1  0
 13 16  1  0
 16 17  1  0
 16 18  1  0
 16 19  1  0
 19 20  1  0
 19 21  1  0
 19 22  1  0
 10 23  1  0
 23 24  1  0
 23 25  1  0
 23 26  1  0
M  END
$$$$

     RDKit          2D

 33 32  0  0  0  0  0  0  0  0999 V2000
    0.0000    0.0000    0.0000 C   0  0  0  0  0  0  0  0  0  0  0  0
    1.2990    0.7500    0.0000 C   0  0  0  0  0  0  0  0  0  0  0  0
    2.5981   -0.0000    0.0000 C   0  0  0  0  0  0  0  0  0  0  0  0
    1.2990    2.2500    0.0000 O   0  0  0  0  0  0  0  0  0  0  0  0
    2.5981    3.0000    0.0000 C   0  0  0  0  0  0  0  0  0  0  0  0
    3.8971    2.2500    0.0000 O   0  0  0  0  0  0  0  0  0  0  0  0
    2.5981    4.5000    0.0000 C   0  0  0  0  0  0  0  0  0  0  0  0
    1.0981    4.5000    0.0000 F   0  0  0  0  0  0  0  0  0  0  0  0
    4.0981    4.5000    0.0000 O   0  0  0  0  0  0  0  0  0  0  0  0
    4.8481    5.7990    0.0000 C   0  0  0  0  0  0  0  0  0  0  0  0
    3.6501    6.7018    0.0000 F   0  0  0  0  0  0  0  0  0  0  0  0
    6.1471    5.0490    0.0000 F   0  0  0  0  0  0  0  0  0  0  0  0
    5.5981    7.0981    0.0000 C   0  0  0  0  0  0  0  0  0  0  0  0
    4.2990    7.8481    0.0000 F   0  0  0  0  0  0  0  0  0  0  0  0
    6.8971    6.3481    0.0000 O   0  0  0  0  0  0  0  0  0  0  0  0
    8.1962    7.0981    0.0000 C   0  0  0  0  0  0  0  0  0  0  0  0
    7.8847    7.8319    0.0000 F   0  0  0  0  0  0  0  0  0  0  0  0
    8.9462    5.7990    0.0000 F   0  0  0  0  0  0  0  0  0  0  0  0
    9.4952    7.8481    0.0000 C   0  0  0  0  0  0  0  0  0  0  0  0
   10.2452    6.5490    0.0000 F   0  0  0  0  0  0  0  0  0  0  0  0
    8.7452    9.1471    0.0000 F   0  0  0  0  0  0  0  0  0  0  0  0
   10.7942    8.5981    0.0000 C   0  0  0  0  0  0  0  0  0  0  0  0
   12.0933    9.3481    0.0000 F   0  0  0  0  0  0  0  0  0  0  0  0
   10.0442    9.8971    0.0000 F   0  0  0  0  0  0  0  0  0  0  0  0
   11.5442    7.2990    0.0000 F   0  0  0  0  0  0  0  0  0  0  0  0
    6.3481    8.3971    0.0000 C   0  0  0  0  0  0  0  0  0  0  0  0
    7.0981    9.6962    0.0000 F   0  0  0  0  0  0  0  0  0  0  0  0
    5.0490    9.1471    0.0000 F   0  0  0  0  0  0  0  0  0  0  0  0
    7.1354    8.2725    0.0000 F   0  0  0  0  0  0  0  0  0  0  0  0
    2.5981    6.0000    0.0000 C   0  0  0  0  0  0  0  0  0  0  0  0
    2.5981    7.5000    0.0000 F   0  0  0  0  0  0  0  0  0  0  0  0
    1.0981    6.0000    0.0000 F   0  0  0  0  0  0  0  0  0  0  0  0
    3.9984    6.5377    0.0000 F   0  0  0  0  0  0  0  0  0  0  0  0
  1  2  1  0
  2  3  1  0
  2  4  1  0
  4  5  1  0
  5  6  2  0
  5  7  1  0
  7  8  1  0
  7  9  1  0
  9 10  1  0
 10 11  1  0
 10 12  1  0
 10 13  1  0
 13 14  1  0
 13 15  1  0
 15 16  1  0
 16 17  1  0
 16 18  1  0
 16 19  1  0
 19 20  1  0
 19 21  1  0
 19 22  1  0
 22 23  1  0
 22 24  1  0
 22 25  1  0
 13 26  1  0
 26 27  1  0
 26 28  1  0
 26 29  1  0
  7 30  1  0
 30 31  1  0
 30 32  1  0
 30 33  1  0
M  END
$$$$

     RDKit          2D

 27 27  0  0  0  0  0  0  0  0999 V2000
    5.5615   -0.5652    0.0000 O   0  0  0  0  0  0  0  0  0  0  0  0
    5.2500   -1.2990    0.0000 C   0  0  0  0  0  0  0  0  0  0  0  0
    3.7500   -1.2990    0.0000 O   0  0  0  0  0  0  0  0  0  0  0  0
    3.0000    0.0000    0.0000 C   0  0  0  0  0  0  0  0  0  0  0  0
    1.5000    0.0000    0.0000 C   0  0  0  0  0  0  0  0  0  0  0  0
    0.7500   -1.2990    0.0000 C   0  0  0  0  0  0  0  0  0  0  0  0
   -0.7500   -1.2990    0.0000 C   0  0  0  0  0  0  0  0  0  0  0  0
   -1.5000   -0.0000    0.0000 C   0  0  0  0  0  0  0  0  0  0  0  0
   -0.7500    1.2990    0.0000 C   0  0  0  0  0  0  0  0  0  0  0  0
    0.7500    1.2990    0.0000 C   0  0  0  0  0  0  0  0  0  0  0  0
    6.0000   -2.5981    0.0000 C   0  0  0  0  0  0  0  0  0  0  0  0
    4.7010   -3.3481    0.0000 F   0  0  0  0  0  0  0  0  0  0  0  0
    7.2990   -1.8481    0.0000 O   0  0  0  0  0  0  0  0  0  0  0  0
    7.2990   -0.3481    0.0000 C   0  0  0  0  0  0  0  0  0  0  0  0
    8.7990   -0.3481    0.0000 F   0  0  0  0  0  0  0  0  0  0  0  0
    6.5078   -0.2509    0.0000 F   0  0  0  0  0  0  0  0  0  0  0  0
    7.2990    1.1519    0.0000 C   0  0  0  0  0  0  0  0  0  0  0  0
    5.7990    1.1519    0.0000 F   0  0  0  0  0  0  0  0  0  0  0  0
    8.7990    1.1519    0.0000 F   0  0  0  0  0  0  0  0  0  0  0  0
    7.2990    2.6519    0.0000 C   0  0  0  0  0  0  0  0  0  0  0  0
    7.2990    4.1519    0.0000 F   0  0  0  0  0  0  0  0  0  0  0  0
    8.7990    2.6519    0.0000 F   0  0  0  0  0  0  0  0  0  0  0  0
    5.7990    2.6519    0.0000 F   0  0  0  0  0  0  0  0  0  0  0  0
    6.7500   -3.8971    0.0000 C   0  0  0  0  0  0  0  0  0  0  0  0
    7.5000   -5.1962    0.0000 F   0  0  0  0  0  0  0  0  0  0  0  0
    5.4510   -4.6471    0.0000 F   0  0  0  0  0  0  0  0  0  0  0  0
    8.0490   -3.1471    0.0000 F   0  0  0  0  0  0  0  0  0  0  0  0
  1  2  2  0
  2  3  1  0
  3  4  1  0
  4  5  1  0
  5  6  2  0
  6  7  1  0
  7  8  2  0
  8  9  1  0
  9 10  2  0
  2 11  1  0
 11 12  1  0
 11 13  1  0
 13 14  1  0
 14 15  1  0
 14 16  1  0
 14 17  1  0
 17 18  1  0
 17 19  1  0
 17 20  1  0
 20 21  1  0
 20 22  1  0
 20 23  1  0
 11 24  1  0
 24 25  1  0
 24 26  1  0
 24 27  1  0
 10  5  1  0
M  END
$$$$

     RDKit          2D

 44 43  0  0  0  0  0  0  0  0999 V2000
    0.0000    0.0000    0.0000 C   0  0  0  0  0  0  0  0  0  0  0  0
    1.2990    0.7500    0.0000 C   0  0  0  0  0  0  0  0  0  0  0  0
    2.5981   -0.0000    0.0000 C   0  0  0  0  0  0  0  0  0  0  0  0
    3.8971    0.7500    0.0000 N   0  0  0  0  0  0  0  0  0  0  0  0
    5.1962   -0.0000    0.0000 C   0  0  0  0  0  0  0  0  0  0  0  0
    6.4952    0.7500    0.0000 C   0  0  0  0  0  0  0  0  0  0  0  0
    7.7942   -0.0000    0.0000 C   0  0  0  0  0  0  0  0  0  0  0  0
    9.0933    0.7500    0.0000 C   0  0  0  0  0  0  0  0  0  0  0  0
    8.3433    2.0490    0.0000 F   0  0  0  0  0  0  0  0  0  0  0  0
    9.8433   -0.5490    0.0000 O   0  0  0  0  0  0  0  0  0  0  0  0
   11.3433   -0.5490    0.0000 C   0  0  0  0  0  0  0  0  0  0  0  0
   11.5261    0.9398    0.0000 F   0  0  0  0  0  0  0  0  0  0  0  0
   11.3433   -2.0490    0.0000 F   0  0  0  0  0  0  0  0  0  0  0  0
   12.8433   -0.5490    0.0000 C   0  0  0  0  0  0  0  0  0  0  0  0
   12.8433    0.9510    0.0000 F   0  0  0  0  0  0  0  0  0  0  0  0
   12.8433   -2.0490    0.0000 O   0  0  0  0  0  0  0  0  0  0  0  0
   14.1423   -2.7990    0.0000 C   0  0  0  0  0  0  0  0  0  0  0  0
   15.0451   -1.6011    0.0000 F   0  0  0  0  0  0  0  0  0  0  0  0
   13.3923   -4.0981    0.0000 F   0  0  0  0  0  0  0  0  0  0  0  0
   15.4413   -3.5490    0.0000 C   0  0  0  0  0  0  0  0  0  0  0  0
   16.1913   -2.2500    0.0000 F   0  0  0  0  0  0  0  0  0  0  0  0
   14.6913   -4.8481    0.0000 O   0  0  0  0  0  0  0  0  0  0  0  0
   15.4413   -6.1471    0.0000 C   0  0  0  0  0  0  0  0  0  0  0  0
   16.1751   -5.8357    0.0000 F   0  0  0  0  0  0  0  0  0  0  0  0
   14.1423   -6.8971    0.0000 F   0  0  0  0  0  0  0  0  0  0  0  0
   16.1913   -7.4462    0.0000 C   0  0  0  0  0  0  0  0  0  0  0  0
   14.8923   -8.1962    0.0000 F   0  0  0  0  0  0  0  0  0  0  0  0
   17.4904   -6.6962    0.0000 F   0  0  0  0  0  0  0  0  0  0  0  0
   16.9413   -8.7452    0.0000 C   0  0  0  0  0  0  0  0  0  0  0  0
   17.6913  -10.0442    0.0000 F   0  0  0  0  0  0  0  0  0  0  0  0
   18.2404   -7.9952    0.0000 F   0  0  0  0  0  0  0  0  0  0  0  0
   15.6423   -9.4952    0.0000 F   0  0  0  0  0  0  0  0  0  0  0  0
   16.7404   -4.2990    0.0000 C   0  0  0  0  0  0  0  0  0  0  0  0
   18.0394   -5.0490    0.0000 F   0  0  0  0  0  0  0  0  0  0  0  0
   17.4904   -3.0000    0.0000 F   0  0  0  0  0  0  0  0  0  0  0  0
   16.6157   -5.0864    0.0000 F   0  0  0  0  0  0  0  0  0  0  0  0
   14.3433   -0.5490    0.0000 C   0  0  0  0  0  0  0  0  0  0  0  0
   15.8433   -0.5490    0.0000 F   0  0  0  0  0  0  0  0  0  0  0  0
   14.3433    0.9510    0.0000 F   0  0  0  0  0  0  0  0  0  0  0  0
   14.8809   -1.9494    0.0000 F   0  0  0  0  0  0  0  0  0  0  0  0
   10.3923    1.5000    0.0000 C   0  0  0  0  0  0  0  0  0  0  0  0
   11.6913    2.2500    0.0000 F   0  0  0  0  0  0  0  0  0  0  0  0
    9.6423    2.7990    0.0000 F   0  0  0  0  0  0  0  0  0  0  0  0
   11.5581    0.5561    0.0000 F   0  0  0  0  0  0  0  0  0  0  0  0
  1  2  1  0
  2  3  1  0
  3  4  1  0
  4  5  1  0
  5  6  1  0
  6  7  1  0
  7  8  1  0
  8  9  1  0
  8 10  1  0
 10 11  1  0
 11 12  1  0
 11 13  1  0
 11 14  1  0
 14 15  1  0
 14 16  1  0
 16 17  1  0
 17 18  1  0
 17 19  1  0
 17 20  1  0
 20 21  1  0
 20 22  1  0
 22 23  1  0
 23 24  1  0
 23 25  1  0
 23 26  1  0
 26 27  1  0
 26 28  1  0
 26 29  1  0
 29 30  1  0
 29 31  1  0
 29 32  1  0
 20 33  1  0
 33 34  1  0
 33 35  1  0
 33 36  1  0
 14 37  1  0
 37 38  1  0
 37 39  1  0
 37 40  1  0
  8 41  1  0
 41 42  1  0
 41 43  1  0
 41 44  1  0
M  END
$$$$

     RDKit          2D

 59 59  0  0  0  0  0  0  0  0999 V2000
    3.7500   -1.2990    0.0000 O   0  0  0  0  0  0  0  0  0  0  0  0
    3.0000    0.0000    0.0000 C   0  0  0  0  0  0  0  0  0  0  0  0
    1.5000    0.0000    0.0000 C   0  0  0  0  0  0  0  0  0  0  0  0
    0.7500   -1.2990    0.0000 C   0  0  0  0  0  0  0  0  0  0  0  0
   -0.7500   -1.2990    0.0000 C   0  0  0  0  0  0  0  0  0  0  0  0
   -1.5000   -2.5981    0.0000 O   0  0  0  0  0  0  0  0  0  0  0  0
   -3.0000   -2.5981    0.0000 C   0  0  0  0  0  0  0  0  0  0  0  0
   -3.0000   -1.0981    0.0000 F   0  0  0  0  0  0  0  0  0  0  0  0
   -3.0000   -4.0981    0.0000 F   0  0  0  0  0  0  0  0  0  0  0  0
   -4.5000   -2.5981    0.0000 C   0  0  0  0  0  0  0  0  0  0  0  0
   -5.2500   -3.8971    0.0000 F   0  0  0  0  0  0  0  0  0  0  0  0
   -5.2500   -1.2990    0.0000 O   0  0  0  0  0  0  0  0  0  0  0  0
   -6.7500   -1.2990    0.0000 C   0  0  0  0  0  0  0  0  0  0  0  0
   -6.7500   -2.7990    0.0000 F   0  0  0  0  0  0  0  0  0  0  0  0
   -6.7500    0.2010    0.0000 F   0  0  0  0  0  0  0  0  0  0  0  0
   -8.2500   -1.2990    0.0000 C   0  0  0  0  0  0  0  0  0  0  0  0
   -8.2500   -2.7990    0.0000 F   0  0  0  0  0  0  0  0  0  0  0  0
   -8.2500    0.2010    0.0000 F   0  0  0  0  0  0  0  0  0  0  0  0
   -9.7500   -1.2990    0.0000 C   0  0  0  0  0  0  0  0  0  0  0  0
  -11.2500   -1.2990    0.0000 F   0  0  0  0  0  0  0  0  0  0  0  0
   -9.7500    0.2010    0.0000 F   0  0  0  0  0  0  0  0  0  0  0  0
   -9.7500   -2.7990    0.0000 F   0  0  0  0  0  0  0  0  0  0  0  0
   -1.5000    0.0000    0.0000 C   0  0  0  0  0  0  0  0  0  0  0  0
   -3.0000    0.0000    0.0000 O   0  0  0  0  0  0  0  0  0  0  0  0
   -3.7500    1.2990    0.0000 C   0  0  0  0  0  0  0  0  0  0  0  0
   -2.4510    2.0490    0.0000 F   0  0  0  0  0  0  0  0  0  0  0  0
   -5.0490    0.5490    0.0000 F   0  0  0  0  0  0  0  0  0  0  0  0
   -4.5000    2.5981    0.0000 C   0  0  0  0  0  0  0  0  0  0  0  0
   -3.7500    3.8971    0.0000 F   0  0  0  0  0  0  0  0  0  0  0  0
   -6.0000    2.5981    0.0000 O   0  0  0  0  0  0  0  0  0  0  0  0
   -6.7500    3.8971    0.0000 C   0  0  0  0  0  0  0  0  0  0  0  0
   -5.4510    4.6471    0.0000 F   0  0  0  0  0  0  0  0  0  0  0  0
   -8.0490    3.1471    0.0000 F   0  0  0  0  0  0  0  0  0  0  0  0
   -7.5000    5.1962    0.0000 C   0  0  0  0  0  0  0  0  0  0  0  0
   -6.2010    5.9462    0.0000 F   0  0  0  0  0  0  0  0  0  0  0  0
   -8.7990    4.4462    0.0000 F   0  0  0  0  0  0  0  0  0  0  0  0
   -8.2500    6.4952    0.0000 C   0  0  0  0  0  0  0  0  0  0  0  0
   -9.0000    7.7942    0.0000 F   0  0  0  0  0  0  0  0  0  0  0  0
   -9.5490    5.7452    0.0000 F   0  0  0  0  0  0  0  0  0  0  0  0
   -6.9510    7.2452    0.0000 F   0  0  0  0  0  0  0  0  0  0  0  0
   -0.7500    1.2990    0.0000 C   0  0  0  0  0  0  0  0  0  0  0  0
   -1.5000    2.5981    0.0000 O   0  0  0  0  0  0  0  0  0  0  0  0
   -0.7500    3.8971    0.0000 C   0  0  0  0  0  0  0  0  0  0  0  0
    0.5490    3.1471    0.0000 F   0  0  0  0  0  0  0  0  0  0  0  0
   -2.0490    4.6471    0.0000 F   0  0  0  0  0  0  0  0  0  0  0  0
    0.0000    5.1962    0.0000 C   0  0  0  0  0  0  0  0  0  0  0  0
   -0.7500    6.4952    0.0000 F   0  0  0  0  0  0  0  0  0  0  0  0
    1.5000    5.1962    0.0000 O   0  0  0  0  0  0  0  0  0  0  0  0
    2.2500    6.4952    0.0000 C   0  0  0  0  0  0  0  0  0  0  0  0
    0.9510    7.2452    0.0000 F   0  0  0  0  0  0  0  0  0  0  0  0
    3.5490    5.7452    0.0000 F   0  0  0  0  0  0  0  0  0  0  0  0
    3.0000    7.7942    0.0000 C   0  0  0  0  0  0  0  0  0  0  0  0
    1.7010    8.5442    0.0000 F   0  0  0  0  0  0  0  0  0  0  0  0
    4.2990    7.0442    0.0000 F   0  0  0  0  0  0  0  0  0  0  0  0
    3.7500    9.0933    0.0000 C   0  0  0  0  0  0  0  0  0  0  0  0
    4.5000   10.3923    0.0000 F   0  0  0  0  0  0  0  0  0  0  0  0
    5.0490    8.3433    0.0000 F   0  0  0  0  0  0  0  0  0  0  0  0
    2.4510    9.8433    0.0000 F   0  0  0  0  0  0  0  0  0  0  0  0
    0.7500    1.2990    0.0000 C   0  0  0  0  0  0  0  0  0  0  0  0
  1  2  1  0
  2  3  1  0
  3  4  2  0
  4  5  1  0
  5  6  1  0
  6  7  1  0
  7  8  1  0
  7  9  1  0
  7 10  1  0
 10 11  1  0
 10 12  1  0
 12 13  1  0
 13 14  1  0
 13 15  1  0
 13 16  1  0
 16 17  1  0
 16 18  1  0
 16 19  1  0
 19 20  1  0
 19 21  1  0
 19 22  1  0
  5 23  2  0
 23 24  1  0
 24 25  1  0
 25 26  1  0
 25 27  1  0
 25 28  1  0
 28 29  1  0
 28 30  1  0
 30 31  1  0
 31 32  1  0
 31 33  1  0
 31 34  1  0
 34 35  1  0
 34 36  1  0
 34 37  1  0
 37 38  1  0
 37 39  1  0
 37 40  1  0
 23 41  1  0
 41 42  1  0
 42 43  1  0
 43 44  1  0
 43 45  1  0
 43 46  1  0
 46 47  1  0
 46 48  1  0
 48 49  1  0
 49 50  1  0
 49 51  1  0
 49 52  1  0
 52 53  1  0
 52 54  1  0
 52 55  1  0
 55 56  1  0
 55 57  1  0
 55 58  1  0
 41 59  2  0
 59  3  1  0
M  END
$$$$

     RDKit          2D

 35 35  0  0  0  0  0  0  0  0999 V2000
    3.7500    1.2990    0.0000 O   0  0  0  0  0  0  0  0  0  0  0  0
    3.0000    0.0000    0.0000 C   0  0  0  0  0  0  0  0  0  0  0  0
    1.5000    0.0000    0.0000 N   0  0  0  0  0  0  0  0  0  0  0  0
    0.7500   -1.2990    0.0000 C   0  0  0  0  0  0  0  0  0  0  0  0
   -0.7500   -1.2990    0.0000 C   0  0  0  0  0  0  0  0  0  0  0  0
   -1.5000    0.0000    0.0000 O   0  0  0  0  0  0  0  0  0  0  0  0
   -0.7500    1.2990    0.0000 C   0  0  0  0  0  0  0  0  0  0  0  0
    0.7500    1.2990    0.0000 C   0  0  0  0  0  0  0  0  0  0  0  0
    3.7500   -1.2990    0.0000 C   0  0  0  0  0  0  0  0  0  0  0  0
    2.4510   -2.0490    0.0000 F   0  0  0  0  0  0  0  0  0  0  0  0
    5.0490   -0.5490    0.0000 O   0  0  0  0  0  0  0  0  0  0  0  0
    6.3481   -1.2990    0.0000 C   0  0  0  0  0  0  0  0  0  0  0  0
    5.7620   -2.6798    0.0000 F   0  0  0  0  0  0  0  0  0  0  0  0
    7.0981    0.0000    0.0000 F   0  0  0  0  0  0  0  0  0  0  0  0
    7.6471   -2.0490    0.0000 C   0  0  0  0  0  0  0  0  0  0  0  0
    6.8971   -3.3481    0.0000 F   0  0  0  0  0  0  0  0  0  0  0  0
    8.3971   -0.7500    0.0000 O   0  0  0  0  0  0  0  0  0  0  0  0
    9.8971   -0.7500    0.0000 C   0  0  0  0  0  0  0  0  0  0  0  0
    9.9943   -1.5412    0.0000 F   0  0  0  0  0  0  0  0  0  0  0  0
    9.8971    0.7500    0.0000 F   0  0  0  0  0  0  0  0  0  0  0  0
   11.3971   -0.7500    0.0000 C   0  0  0  0  0  0  0  0  0  0  0  0
   11.3971    0.7500    0.0000 F   0  0  0  0  0  0  0  0  0  0  0  0
   11.3971   -2.2500    0.0000 F   0  0  0  0  0  0  0  0  0  0  0  0
   12.8971   -0.7500    0.0000 C   0  0  0  0  0  0  0  0  0  0  0  0
   14.3971   -0.7500    0.0000 F   0  0  0  0  0  0  0  0  0  0  0  0
   12.8971   -2.2500    0.0000 F   0  0  0  0  0  0  0  0  0  0  0  0
   12.8971    0.7500    0.0000 F   0  0  0  0  0  0  0  0  0  0  0  0
    8.9462   -2.7990    0.0000 C   0  0  0  0  0  0  0  0  0  0  0  0
   10.2452   -3.5490    0.0000 F   0  0  0  0  0  0  0  0  0  0  0  0
    9.5657   -2.2974    0.0000 F   0  0  0  0  0  0  0  0  0  0  0  0
    8.1962   -4.0981    0.0000 F   0  0  0  0  0  0  0  0  0  0  0  0
    4.5000   -2.5981    0.0000 C   0  0  0  0  0  0  0  0  0  0  0  0
    5.2500   -3.8971    0.0000 F   0  0  0  0  0  0  0  0  0  0  0  0
    3.2010   -3.3481    0.0000 F   0  0  0  0  0  0  0  0  0  0  0  0
    5.9816   -2.3635    0.0000 F   0  0  0  0  0  0  0  0  0  0  0  0
  1  2  2  0
  2  3  1  0
  3  4  1  0
  4  5  1  0
  5  6  1  0
  6  7  1  0
  7  8  1  0
  2  9  1  0
  9 10  1  0
  9 11  1  0
 11 12  1  0
 12 13  1  0
 12 14  1  0
 12 15  1  0
 15 16  1  0
 15 17  1  0
 17 18  1  0
 18 19  1  0
 18 20  1  0
 18 21  1  0
 21 22  1  0
 21 23  1  0
 21 24  1  0
 24 25  1  0
 24 26  1  0
 24 27  1  0
 15 28  1  0
 28 29  1  0
 28 30  1  0
 28 31  1  0
  9 32  1  0
 32 33  1  0
 32 34  1  0
 32 35  1  0
  8  3  1  0
M  END
$$$$

     RDKit          2D

 25 24  0  0  0  0  0  0  0  0999 V2000
   -0.1828   -1.4888    0.0000 O   0  0  0  0  0  0  0  0  0  0  0  0
   -0.0000    0.0000    0.0000 C   0  0  0  0  0  0  0  0  0  0  0  0
   -1.3808    0.5861    0.0000 O   0  0  0  0  0  0  0  0  0  0  0  0
    1.2990    0.7500    0.0000 C   0  0  0  0  0  0  0  0  0  0  0  0
    0.5490    2.0490    0.0000 C   0  0  0  0  0  0  0  0  0  0  0  0
   -0.2010    3.3481    0.0000 F   0  0  0  0  0  0  0  0  0  0  0  0
    1.1224    2.6028    0.0000 F   0  0  0  0  0  0  0  0  0  0  0  0
   -0.8317    1.4630    0.0000 F   0  0  0  0  0  0  0  0  0  0  0  0
    2.0490   -0.5490    0.0000 C   0  0  0  0  0  0  0  0  0  0  0  0
    2.7990   -1.8481    0.0000 F   0  0  0  0  0  0  0  0  0  0  0  0
    3.4910   -0.1357    0.0000 F   0  0  0  0  0  0  0  0  0  0  0  0
    0.8511   -1.4518    0.0000 F   0  0  0  0  0  0  0  0  0  0  0  0
    2.5981    1.5000    0.0000 C   0  0  0  0  0  0  0  0  0  0  0  0
    3.8971    2.2500    0.0000 C   0  0  0  0  0  0  0  0  0  0  0  0
    5.1962    3.0000    0.0000 F   0  0  0  0  0  0  0  0  0  0  0  0
    4.7999    1.0521    0.0000 F   0  0  0  0  0  0  0  0  0  0  0  0
    3.3111    3.6308    0.0000 F   0  0  0  0  0  0  0  0  0  0  0  0
    1.8481    2.7990    0.0000 C   0  0  0  0  0  0  0  0  0  0  0  0
    1.0981    4.0981    0.0000 F   0  0  0  0  0  0  0  0  0  0  0  0
    3.0460    3.7018    0.0000 F   0  0  0  0  0  0  0  0  0  0  0  0
    0.4062    2.3857    0.0000 F   0  0  0  0  0  0  0  0  0  0  0  0
    3.3481    0.2010    0.0000 C   0  0  0  0  0  0  0  0  0  0  0  0
    4.0981   -1.0981    0.0000 F   0  0  0  0  0  0  0  0  0  0  0  0
    4.7288    0.7870    0.0000 F   0  0  0  0  0  0  0  0  0  0  0  0
    2.2691   -0.8411    0.0000 F   0  0  0  0  0  0  0  0  0  0  0  0
  1  2  2  0
  2  3  1  0
  2  4  1  0
  4  5  1  0
  5  6  1  0
  5  7  1  0
  5  8  1  0
  4  9  1  0
  9 10  1  0
  9 11  1  0
  9 12  1  0
  4 13  1  0
 13 14  1  0
 14 15  1  0
 14 16  1  0
 14 17  1  0
 13 18  1  0
 18 19  1  0
 18 20  1  0
 18 21  1  0
 13 22  1  0
 22 23  1  0
 22 24  1  0
 22 25  1  0
M  END
$$$$

     RDKit          2D

 25 24  0  0  0  0  0  0  0  0999 V2000
   -0.0000   -1.5000    0.0000 O   0  0  0  0  0  0  0  0  0  0  0  0
    0.0000    0.0000    0.0000 C   0  0  0  0  0  0  0  0  0  0  0  0
   -1.2990    0.7500    0.0000 O   0  0  0  0  0  0  0  0  0  0  0  0
    1.2990    0.7500    0.0000 C   0  0  0  0  0  0  0  0  0  0  0  0
    0.3963    1.9479    0.0000 F   0  0  0  0  0  0  0  0  0  0  0  0
    1.6451   -0.0653    0.0000 F   0  0  0  0  0  0  0  0  0  0  0  0
    2.5981    1.5000    0.0000 C   0  0  0  0  0  0  0  0  0  0  0  0
    3.3481    0.2010    0.0000 C   0  0  0  0  0  0  0  0  0  0  0  0
    4.0981   -1.0981    0.0000 F   0  0  0  0  0  0  0  0  0  0  0  0
    2.6407   -0.3321    0.0000 F   0  0  0  0  0  0  0  0  0  0  0  0
    4.1634    0.5470    0.0000 F   0  0  0  0  0  0  0  0  0  0  0  0
    3.8971    2.2500    0.0000 C   0  0  0  0  0  0  0  0  0  0  0  0
    4.4302    1.5426    0.0000 F   0  0  0  0  0  0  0  0  0  0  0  0
    3.5511    3.0653    0.0000 F   0  0  0  0  0  0  0  0  0  0  0  0
    5.1962    3.0000    0.0000 C   0  0  0  0  0  0  0  0  0  0  0  0
    6.4952    3.7500    0.0000 F   0  0  0  0  0  0  0  0  0  0  0  0
    5.9462    1.7010    0.0000 F   0  0  0  0  0  0  0  0  0  0  0  0
    4.4462    4.2990    0.0000 F   0  0  0  0  0  0  0  0  0  0  0  0
    1.8481    2.7990    0.0000 C   0  0  0  0  0  0  0  0  0  0  0  0
    2.5554    3.3321    0.0000 F   0  0  0  0  0  0  0  0  0  0  0  0
    0.4673    2.2130    0.0000 F   0  0  0  0  0  0  0  0  0  0  0  0
    1.0981    4.0981    0.0000 C   0  0  0  0  0  0  0  0  0  0  0  0
    0.3481    5.3971    0.0000 F   0  0  0  0  0  0  0  0  0  0  0  0
    2.3971    4.8481    0.0000 F   0  0  0  0  0  0  0  0  0  0  0  0
   -0.2010    3.3481    0.0000 F   0  0  0  0  0  0  0  0  0  0  0  0
  1  2  2  0
  2  3  1  0
  2  4  1  0
  4  5  1  0
  4  6  1  0
  4  7  1  0
  7  8  1  0
  8  9  1  0
  8 10  1  0
  8 11  1  0
  7 12  1  0
 12 13  1  0
 12 14  1  0
 12 15  1  0
 15 16  1  0
 15 17  1  0
 15 18  1  0
  7 19  1  0
 19 20  1  0
 19 21  1  0
 19 22  1  0
 22 23  1  0
 22 24  1  0
 22 25  1  0
M  END
$$$$

     RDKit          2D

 25 24  0  0  0  0  0  0  0  0999 V2000
   -0.1828   -1.4888    0.0000 O   0  0  0  0  0  0  0  0  0  0  0  0
   -0.0000    0.0000    0.0000 C   0  0  0  0  0  0  0  0  0  0  0  0
   -1.2990    0.7500    0.0000 O   0  0  0  0  0  0  0  0  0  0  0  0
    1.2990    0.7500    0.0000 C   0  0  0  0  0  0  0  0  0  0  0  0
    0.5490    2.0490    0.0000 F   0  0  0  0  0  0  0  0  0  0  0  0
    2.0490   -0.5490    0.0000 C   0  0  0  0  0  0  0  0  0  0  0  0
    2.8644   -0.2030    0.0000 F   0  0  0  0  0  0  0  0  0  0  0  0
    0.8511   -1.4518    0.0000 F   0  0  0  0  0  0  0  0  0  0  0  0
    2.7990   -1.8481    0.0000 C   0  0  0  0  0  0  0  0  0  0  0  0
    3.5490   -3.1471    0.0000 F   0  0  0  0  0  0  0  0  0  0  0  0
    1.5000   -2.5981    0.0000 F   0  0  0  0  0  0  0  0  0  0  0  0
    4.0981   -1.0981    0.0000 F   0  0  0  0  0  0  0  0  0  0  0  0
    2.5981    1.5000    0.0000 C   0  0  0  0  0  0  0  0  0  0  0  0
    1.8481    2.7990    0.0000 F   0  0  0  0  0  0  0  0  0  0  0  0
    3.1311    0.7926    0.0000 F   0  0  0  0  0  0  0  0  0  0  0  0
    3.8971    2.2500    0.0000 C   0  0  0  0  0  0  0  0  0  0  0  0
    4.6471    0.9510    0.0000 F   0  0  0  0  0  0  0  0  0  0  0  0
    3.1471    3.5490    0.0000 F   0  0  0  0  0  0  0  0  0  0  0  0
    5.1962    3.0000    0.0000 C   0  0  0  0  0  0  0  0  0  0  0  0
    4.4462    4.2990    0.0000 F   0  0  0  0  0  0  0  0  0  0  0  0
    5.9462    1.7010    0.0000 F   0  0  0  0  0  0  0  0  0  0  0  0
    6.4952    3.7500    0.0000 C   0  0  0  0  0  0  0  0  0  0  0  0
    7.7942    4.5000    0.0000 F   0  0  0  0  0  0  0  0  0  0  0  0
    7.2452    2.4510    0.0000 F   0  0  0  0  0  0  0  0  0  0  0  0
    5.7452    5.0490    0.0000 F   0  0  0  0  0  0  0  0  0  0  0  0
  1  2  2  0
  2  3  1  0
  2  4  1  0
  4  5  1  0
  4  6  1  0
  6  7  1  0
  6  8  1  0
  6  9  1  0
  9 10  1  0
  9 11  1  0
  9 12  1  0
  4 13  1  0
 13 14  1  0
 13 15  1  0
 13 16  1  0
 16 17  1  0
 16 18  1  0
 16 19  1  0
 19 20  1  0
 19 21  1  0
 19 22  1  0
 22 23  1  0
 22 24  1  0
 22 25  1  0
M  END
$$$$

     RDKit          2D

 25 24  0  0  0  0  0  0  0  0999 V2000
    0.0000   -1.5000    0.0000 O   0  0  0  0  0  0  0  0  0  0  0  0
    0.0000    0.0000    0.0000 C   0  0  0  0  0  0  0  0  0  0  0  0
   -1.2990    0.7500    0.0000 O   0  0  0  0  0  0  0  0  0  0  0  0
    1.2990    0.7500    0.0000 C   0  0  0  0  0  0  0  0  0  0  0  0
    2.0490   -0.5490    0.0000 F   0  0  0  0  0  0  0  0  0  0  0  0
    0.5490    2.0490    0.0000 F   0  0  0  0  0  0  0  0  0  0  0  0
    2.5981    1.5000    0.0000 C   0  0  0  0  0  0  0  0  0  0  0  0
    2.9441    0.6847    0.0000 F   0  0  0  0  0  0  0  0  0  0  0  0
    1.8481    2.7990    0.0000 F   0  0  0  0  0  0  0  0  0  0  0  0
    3.8971    2.2500    0.0000 C   0  0  0  0  0  0  0  0  0  0  0  0
    3.1471    3.5490    0.0000 F   0  0  0  0  0  0  0  0  0  0  0  0
    4.6471    0.9510    0.0000 C   0  0  0  0  0  0  0  0  0  0  0  0
    5.3971   -0.3481    0.0000 F   0  0  0  0  0  0  0  0  0  0  0  0
    3.9397    0.4179    0.0000 F   0  0  0  0  0  0  0  0  0  0  0  0
    5.4624    1.2970    0.0000 F   0  0  0  0  0  0  0  0  0  0  0  0
    5.1962    3.0000    0.0000 C   0  0  0  0  0  0  0  0  0  0  0  0
    4.4462    4.2990    0.0000 F   0  0  0  0  0  0  0  0  0  0  0  0
    5.7292    2.2926    0.0000 F   0  0  0  0  0  0  0  0  0  0  0  0
    6.4952    3.7500    0.0000 C   0  0  0  0  0  0  0  0  0  0  0  0
    7.2452    2.4510    0.0000 F   0  0  0  0  0  0  0  0  0  0  0  0
    5.7452    5.0490    0.0000 F   0  0  0  0  0  0  0  0  0  0  0  0
    7.7942    4.5000    0.0000 C   0  0  0  0  0  0  0  0  0  0  0  0
    9.0933    5.2500    0.0000 F   0  0  0  0  0  0  0  0  0  0  0  0
    7.0442    5.7990    0.0000 F   0  0  0  0  0  0  0  0  0  0  0  0
    8.5442    3.2010    0.0000 F   0  0  0  0  0  0  0  0  0  0  0  0
  1  2  2  0
  2  3  1  0
  2  4  1  0
  4  5  1  0
  4  6  1  0
  4  7  1  0
  7  8  1  0
  7  9  1  0
  7 10  1  0
 10 11  1  0
 10 12  1  0
 12 13  1  0
 12 14  1  0
 12 15  1  0
 10 16  1  0
 16 17  1  0
 16 18  1  0
 16 19  1  0
 19 20  1  0
 19 21  1  0
 19 22  1  0
 22 23  1  0
 22 24  1  0
 22 25  1  0
M  END
$$$$

     RDKit          2D

 17 16  0  0  0  0  0  0  0  0999 V2000
    5.1962   -1.5000    0.0000 O   0  0  0  0  0  0  0  0  0  0  0  0
    5.1962    0.0000    0.0000 C   0  0  0  0  0  0  0  0  0  0  0  0
    6.4952    0.7500    0.0000 O   0  0  0  0  0  0  0  0  0  0  0  0
    3.8971    0.7500    0.0000 C   0  0  0  0  0  0  0  0  0  0  0  0
    3.1471   -0.5490    0.0000 F   0  0  0  0  0  0  0  0  0  0  0  0
    4.3769    1.3866    0.0000 F   0  0  0  0  0  0  0  0  0  0  0  0
    2.5981    1.5000    0.0000 O   0  0  0  0  0  0  0  0  0  0  0  0
    2.5981    3.0000    0.0000 C   0  0  0  0  0  0  0  0  0  0  0  0
    2.5981    4.5000    0.0000 F   0  0  0  0  0  0  0  0  0  0  0  0
    1.0981    3.0000    0.0000 C   0  0  0  0  0  0  0  0  0  0  0  0
   -0.4019    3.0000    0.0000 F   0  0  0  0  0  0  0  0  0  0  0  0
    1.0981    4.5000    0.0000 F   0  0  0  0  0  0  0  0  0  0  0  0
    1.0981    1.5000    0.0000 F   0  0  0  0  0  0  0  0  0  0  0  0
    4.0981    3.0000    0.0000 C   0  0  0  0  0  0  0  0  0  0  0  0
    5.5981    3.0000    0.0000 F   0  0  0  0  0  0  0  0  0  0  0  0
    4.0981    4.5000    0.0000 F   0  0  0  0  0  0  0  0  0  0  0  0
    4.3838    2.2558    0.0000 Cl  0  0  0  0  0  0  0  0  0  0  0  0
  1  2  2  0
  2  3  1  0
  2  4  1  0
  4  5  1  0
  4  6  1  0
  4  7  1  0
  7  8  1  0
  8  9  1  0
  8 10  1  0
 10 11  1  0
 10 12  1  0
 10 13  1  0
  8 14  1  0
 14 15  1  0
 14 16  1  0
 14 17  1  0
M  END
$$$$

     RDKit          2D

 29 28  0  0  0  0  0  0  0  0999 V2000
   15.5885    0.0000    0.0000 C   0  0  0  0  0  0  0  0  0  0  0  0
   14.2894    0.7500    0.0000 O   0  0  0  0  0  0  0  0  0  0  0  0
   12.9904    0.0000    0.0000 C   0  0  0  0  0  0  0  0  0  0  0  0
   12.9904   -1.5000    0.0000 O   0  0  0  0  0  0  0  0  0  0  0  0
   11.6913    0.7500    0.0000 C   0  0  0  0  0  0  0  0  0  0  0  0
   10.9413   -0.5490    0.0000 F   0  0  0  0  0  0  0  0  0  0  0  0
   12.4413    2.0490    0.0000 F   0  0  0  0  0  0  0  0  0  0  0  0
   10.3923    1.5000    0.0000 C   0  0  0  0  0  0  0  0  0  0  0  0
   11.1423    2.7990    0.0000 F   0  0  0  0  0  0  0  0  0  0  0  0
    9.6423    0.2010    0.0000 F   0  0  0  0  0  0  0  0  0  0  0  0
    9.0933    2.2500    0.0000 C   0  0  0  0  0  0  0  0  0  0  0  0
    8.3433    0.9510    0.0000 F   0  0  0  0  0  0  0  0  0  0  0  0
    9.5730    2.8866    0.0000 F   0  0  0  0  0  0  0  0  0  0  0  0
    7.7942    3.0000    0.0000 O   0  0  0  0  0  0  0  0  0  0  0  0
    7.7942    4.5000    0.0000 C   0  0  0  0  0  0  0  0  0  0  0  0
    7.7942    6.0000    0.0000 F   0  0  0  0  0  0  0  0  0  0  0  0
    9.2942    4.5000    0.0000 C   0  0  0  0  0  0  0  0  0  0  0  0
   10.7942    4.5000    0.0000 F   0  0  0  0  0  0  0  0  0  0  0  0
    9.2942    6.0000    0.0000 F   0  0  0  0  0  0  0  0  0  0  0  0
    9.5800    3.7558    0.0000 F   0  0  0  0  0  0  0  0  0  0  0  0
    6.2942    4.5000    0.0000 C   0  0  0  0  0  0  0  0  0  0  0  0
    6.2942    6.0000    0.0000 F   0  0  0  0  0  0  0  0  0  0  0  0
    6.2942    3.0000    0.0000 F   0  0  0  0  0  0  0  0  0  0  0  0
    4.7942    4.5000    0.0000 O   0  0  0  0  0  0  0  0  0  0  0  0
    4.0442    5.7990    0.0000 C   0  0  0  0  0  0  0  0  0  0  0  0
    4.7942    7.0981    0.0000 F   0  0  0  0  0  0  0  0  0  0  0  0
    2.5442    5.7990    0.0000 C   0  0  0  0  0  0  0  0  0  0  0  0
    1.7942    7.0981    0.0000 F   0  0  0  0  0  0  0  0  0  0  0  0
    1.7942    4.5000    0.0000 F   0  0  0  0  0  0  0  0  0  0  0  0
  1  2  1  0
  2  3  1  0
  3  4  2  0
  3  5  1  0
  5  6  1  0
  5  7  1  0
  5  8  1  0
  8  9  1  0
  8 10  1  0
  8 11  1  0
 11 12  1  0
 11 13  1  0
 11 14  1  0
 14 15  1  0
 15 16  1  0
 15 17  1  0
 17 18  1  0
 17 19  1  0
 17 20  1  0
 15 21  1  0
 21 22  1  0
 21 23  1  0
 21 24  1  0
 24 25  1  0
 25 26  1  0
 25 27  2  0
 27 28  1  0
 27 29  1  0
M  END
$$$$

     RDKit          2D

 18 16  0  0  0  0  0  0  0  0999 V2000
   -1.5000   -1.5000    0.0000 O   0  0  0  0  0  0  0  0  0  0  0  0
    0.0000   -1.5000    0.0000 S   0  0  0  0  0  0  0  0  0  0  0  0
    0.7912   -1.5972    0.0000 O   0  0  0  0  0  0  0  0  0  0  0  0
   -0.0000   -3.0000    0.0000 O   0  0  0  0  0  0  0  0  0  0  0  0
    0.0000    0.0000    0.0000 C   0  0  0  0  0  0  0  0  0  0  0  0
   -1.5000    0.0000    0.0000 F   0  0  0  0  0  0  0  0  0  0  0  0
    0.0000    1.5000    0.0000 F   0  0  0  0  0  0  0  0  0  0  0  0
    1.5000    0.0000    0.0000 C   0  0  0  0  0  0  0  0  0  0  0  0
    1.5000    1.5000    0.0000 F   0  0  0  0  0  0  0  0  0  0  0  0
    1.6080   -0.8791    0.0000 F   0  0  0  0  0  0  0  0  0  0  0  0
    3.0000    0.0000    0.0000 C   0  0  0  0  0  0  0  0  0  0  0  0
    3.0000    1.5000    0.0000 F   0  0  0  0  0  0  0  0  0  0  0  0
    3.0000   -1.5000    0.0000 F   0  0  0  0  0  0  0  0  0  0  0  0
    4.5000    0.0000    0.0000 C   0  0  0  0  0  0  0  0  0  0  0  0
    6.0000    0.0000    0.0000 F   0  0  0  0  0  0  0  0  0  0  0  0
    4.5000   -1.5000    0.0000 F   0  0  0  0  0  0  0  0  0  0  0  0
    4.5000    1.5000    0.0000 F   0  0  0  0  0  0  0  0  0  0  0  0
    0.0000    2.5000    0.0000 Na  0  0  0  0  0 15  0  0  0  0  0  0
  1  2  2  0
  2  3  2  0
  2  4  1  0
  2  5  1  0
  5  6  1  0
  5  7  1  0
  5  8  1  0
  8  9  1  0
  8 10  1  0
  8 11  1  0
 11 12  1  0
 11 13  1  0
 11 14  1  0
 14 15  1  0
 14 16  1  0
 14 17  1  0
M  CHG  2   4  -1  18   1
M  END
$$$$

     RDKit          2D

 24 22  0  0  0  0  0  0  0  0999 V2000
    3.3319    1.1885    0.0000 O   0  0  0  0  0  0  0  0  0  0  0  0
    2.5981    1.5000    0.0000 C   0  0  0  0  0  0  0  0  0  0  0  0
    2.5981    3.0000    0.0000 O   0  0  0  0  0  0  0  0  0  0  0  0
    1.2990    0.7500    0.0000 C   0  0  0  0  0  0  0  0  0  0  0  0
    0.5490    2.0490    0.0000 F   0  0  0  0  0  0  0  0  0  0  0  0
    2.0490   -0.5490    0.0000 O   0  0  0  0  0  0  0  0  0  0  0  0
    3.5490   -0.5490    0.0000 C   0  0  0  0  0  0  0  0  0  0  0  0
    3.6462    0.2422    0.0000 F   0  0  0  0  0  0  0  0  0  0  0  0
    3.5490   -2.0490    0.0000 F   0  0  0  0  0  0  0  0  0  0  0  0
    5.0490   -0.5490    0.0000 C   0  0  0  0  0  0  0  0  0  0  0  0
    5.0490    0.9510    0.0000 F   0  0  0  0  0  0  0  0  0  0  0  0
    5.0490   -2.0490    0.0000 F   0  0  0  0  0  0  0  0  0  0  0  0
    6.5490   -0.5490    0.0000 C   0  0  0  0  0  0  0  0  0  0  0  0
    6.5490    0.9510    0.0000 F   0  0  0  0  0  0  0  0  0  0  0  0
    6.5490   -2.0490    0.0000 F   0  0  0  0  0  0  0  0  0  0  0  0
    8.0490   -0.5490    0.0000 C   0  0  0  0  0  0  0  0  0  0  0  0
    9.5490   -0.5490    0.0000 F   0  0  0  0  0  0  0  0  0  0  0  0
    8.0490   -2.0490    0.0000 F   0  0  0  0  0  0  0  0  0  0  0  0
    8.0490    0.9510    0.0000 F   0  0  0  0  0  0  0  0  0  0  0  0
    0.0000    0.0000    0.0000 C   0  0  0  0  0  0  0  0  0  0  0  0
   -1.2990   -0.7500    0.0000 F   0  0  0  0  0  0  0  0  0  0  0  0
   -0.7500    1.2990    0.0000 F   0  0  0  0  0  0  0  0  0  0  0  0
    0.7500   -1.2990    0.0000 F   0  0  0  0  0  0  0  0  0  0  0  0
    0.0000    4.0000    0.0000 N   0  0  0  0  0  0  0  0  0  0  0  0
  1  2  2  0
  2  3  1  0
  2  4  1  0
  4  5  1  0
  4  6  1  0
  6  7  1  0
  7  8  1  0
  7  9  1  0
  7 10  1  0
 10 11  1  0
 10 12  1  0
 10 13  1  0
 13 14  1  0
 13 15  1  0
 13 16  1  0
 16 17  1  0
 16 18  1  0
 16 19  1  0
  4 20  1  0
 20 21  1  0
 20 22  1  0
 20 23  1  0
M  CHG  2   3  -1  24   1
M  END
$$$$

     RDKit          2D

 26 24  0  0  0  0  0  0  0  0999 V2000
   -0.1828   -1.4888    0.0000 O   0  0  0  0  0  0  0  0  0  0  0  0
   -0.0000    0.0000    0.0000 C   0  0  0  0  0  0  0  0  0  0  0  0
   -1.2990    0.7500    0.0000 O   0  0  0  0  0  0  0  0  0  0  0  0
    1.2990    0.7500    0.0000 C   0  0  0  0  0  0  0  0  0  0  0  0
    0.5490    2.0490    0.0000 F   0  0  0  0  0  0  0  0  0  0  0  0
    2.0490   -0.5490    0.0000 C   0  0  0  0  0  0  0  0  0  0  0  0
    2.8644   -0.2030    0.0000 F   0  0  0  0  0  0  0  0  0  0  0  0
    0.8511   -1.4518    0.0000 F   0  0  0  0  0  0  0  0  0  0  0  0
    2.7990   -1.8481    0.0000 C   0  0  0  0  0  0  0  0  0  0  0  0
    3.5490   -3.1471    0.0000 F   0  0  0  0  0  0  0  0  0  0  0  0
    1.5000   -2.5981    0.0000 F   0  0  0  0  0  0  0  0  0  0  0  0
    4.0981   -1.0981    0.0000 F   0  0  0  0  0  0  0  0  0  0  0  0
    2.5981    1.5000    0.0000 C   0  0  0  0  0  0  0  0  0  0  0  0
    1.8481    2.7990    0.0000 F   0  0  0  0  0  0  0  0  0  0  0  0
    3.1311    0.7926    0.0000 F   0  0  0  0  0  0  0  0  0  0  0  0
    3.8971    2.2500    0.0000 C   0  0  0  0  0  0  0  0  0  0  0  0
    4.6471    0.9510    0.0000 F   0  0  0  0  0  0  0  0  0  0  0  0
    3.1471    3.5490    0.0000 F   0  0  0  0  0  0  0  0  0  0  0  0
    5.1962    3.0000    0.0000 C   0  0  0  0  0  0  0  0  0  0  0  0
    4.4462    4.2990    0.0000 F   0  0  0  0  0  0  0  0  0  0  0  0
    5.9462    1.7010    0.0000 F   0  0  0  0  0  0  0  0  0  0  0  0
    6.4952    3.7500    0.0000 C   0  0  0  0  0  0  0  0  0  0  0  0
    7.7942    4.5000    0.0000 F   0  0  0  0  0  0  0  0  0  0  0  0
    7.2452    2.4510    0.0000 F   0  0  0  0  0  0  0  0  0  0  0  0
    5.7452    5.0490    0.0000 F   0  0  0  0  0  0  0  0  0  0  0  0
    0.0000    6.0490    0.0000 Na  0  0  0  0  0 15  0  0  0  0  0  0
  1  2  2  0
  2  3  1  0
  2  4  1  0
  4  5  1  0
  4  6  1  0
  6  7  1  0
  6  8  1  0
  6  9  1  0
  9 10  1  0
  9 11  1  0
  9 12  1  0
  4 13  1  0
 13 14  1  0
 13 15  1  0
 13 16  1  0
 16 17  1  0
 16 18  1  0
 16 19  1  0
 19 20  1  0
 19 21  1  0
 19 22  1  0
 22 23  1  0
 22 24  1  0
 22 25  1  0
M  CHG  2   3  -1  26   1
M  END
$$$$

     RDKit          2D

 13 12  0  0  0  0  0  0  0  0999 V2000
   -3.0000   -5.1962    0.0000 F   0  0  0  0  0  0  0  0  0  0  0  0
   -2.2500   -3.8971    0.0000 C   0  0  0  0  0  0  0  0  0  0  0  0
   -3.5490   -3.1471    0.0000 F   0  0  0  0  0  0  0  0  0  0  0  0
   -0.9510   -4.6471    0.0000 F   0  0  0  0  0  0  0  0  0  0  0  0
   -1.5000   -2.5981    0.0000 C   0  0  0  0  0  0  0  0  0  0  0  0
   -0.2010   -3.3481    0.0000 F   0  0  0  0  0  0  0  0  0  0  0  0
   -2.7990   -1.8481    0.0000 F   0  0  0  0  0  0  0  0  0  0  0  0
   -0.7500   -1.2990    0.0000 C   0  0  0  0  0  0  0  0  0  0  0  0
   -2.0490   -0.5490    0.0000 F   0  0  0  0  0  0  0  0  0  0  0  0
    0.5490   -2.0490    0.0000 F   0  0  0  0  0  0  0  0  0  0  0  0
    0.0000    0.0000    0.0000 C   0  0  0  0  0  0  0  0  0  0  0  0
    1.5000    0.0000    0.0000 C   0  0  0  0  0  0  0  0  0  0  0  0
    2.2500    1.2990    0.0000 I   0  0  0  0  0  0  0  0  0  0  0  0
  1  2  1  0
  2  3  1  0
  2  4  1  0
  2  5  1  0
  5  6  1  0
  5  7  1  0
  5  8  1  0
  8  9  1  0
  8 10  1  0
  8 11  1  0
 11 12  2  0
 12 13  1  0
M  END
$$$$

     RDKit          2D

 25 24  0  0  0  0  0  0  0  0999 V2000
   -2.5981    1.5000    0.0000 O   0  0  0  0  0  0  0  0  0  0  0  0
   -1.2990    0.7500    0.0000 Si  0  0  0  0  0  4  0  0  0  0  0  0
   -2.0490   -0.5490    0.0000 O   0  0  0  0  0  0  0  0  0  0  0  0
   -0.5490    2.0490    0.0000 O   0  0  0  0  0  0  0  0  0  0  0  0
    0.0000    0.0000    0.0000 C   0  0  0  0  0  0  0  0  0  0  0  0
    1.2990    0.7500    0.0000 C   0  0  0  0  0  0  0  0  0  0  0  0
    2.5981   -0.0000    0.0000 C   0  0  0  0  0  0  0  0  0  0  0  0
    3.3481    1.2990    0.0000 F   0  0  0  0  0  0  0  0  0  0  0  0
    1.8481   -1.2990    0.0000 F   0  0  0  0  0  0  0  0  0  0  0  0
    3.8971   -0.7500    0.0000 C   0  0  0  0  0  0  0  0  0  0  0  0
    3.1471   -2.0490    0.0000 F   0  0  0  0  0  0  0  0  0  0  0  0
    4.6471    0.5490    0.0000 F   0  0  0  0  0  0  0  0  0  0  0  0
    5.1962   -1.5000    0.0000 C   0  0  0  0  0  0  0  0  0  0  0  0
    5.9462   -0.2010    0.0000 F   0  0  0  0  0  0  0  0  0  0  0  0
    4.4462   -2.7990    0.0000 F   0  0  0  0  0  0  0  0  0  0  0  0
    6.4952   -2.2500    0.0000 C   0  0  0  0  0  0  0  0  0  0  0  0
    5.7452   -3.5490    0.0000 F   0  0  0  0  0  0  0  0  0  0  0  0
    7.2452   -0.9510    0.0000 F   0  0  0  0  0  0  0  0  0  0  0  0
    7.7942   -3.0000    0.0000 C   0  0  0  0  0  0  0  0  0  0  0  0
    8.5442   -1.7010    0.0000 F   0  0  0  0  0  0  0  0  0  0  0  0
    7.0442   -4.2990    0.0000 F   0  0  0  0  0  0  0  0  0  0  0  0
    9.0933   -3.7500    0.0000 C   0  0  0  0  0  0  0  0  0  0  0  0
   10.3923   -4.5000    0.0000 F   0  0  0  0  0  0  0  0  0  0  0  0
    8.3433   -5.0490    0.0000 F   0  0  0  0  0  0  0  0  0  0  0  0
    9.8433   -2.4510    0.0000 F   0  0  0  0  0  0  0  0  0  0  0  0
  1  2  1  0
  2  3  1  0
  2  4  1  0
  2  5  1  0
  5  6  1  0
  6  7  1  0
  7  8  1  0
  7  9  1  0
  7 10  1  0
 10 11  1  0
 10 12  1  0
 10 13  1  0
 13 14  1  0
 13 15  1  0
 13 16  1  0
 16 17  1  0
 16 18  1  0
 16 19  1  0
 19 20  1  0
 19 21  1  0
 19 22  1  0
 22 23  1  0
 22 24  1  0
 22 25  1  0
M  END
$$$$

     RDKit          2D

 34 33  0  0  0  0  0  0  0  0999 V2000
   -3.7500   -6.4952    0.0000 F   0  0  0  0  0  0  0  0  0  0  0  0
   -3.0000   -5.1962    0.0000 C   0  0  0  0  0  0  0  0  0  0  0  0
   -1.7010   -5.9462    0.0000 F   0  0  0  0  0  0  0  0  0  0  0  0
   -4.2990   -4.4462    0.0000 F   0  0  0  0  0  0  0  0  0  0  0  0
   -2.2500   -3.8971    0.0000 C   0  0  0  0  0  0  0  0  0  0  0  0
   -3.5490   -3.1471    0.0000 F   0  0  0  0  0  0  0  0  0  0  0  0
   -0.9510   -4.6471    0.0000 F   0  0  0  0  0  0  0  0  0  0  0  0
   -1.5000   -2.5981    0.0000 C   0  0  0  0  0  0  0  0  0  0  0  0
   -0.2010   -3.3481    0.0000 F   0  0  0  0  0  0  0  0  0  0  0  0
   -2.7990   -1.8481    0.0000 F   0  0  0  0  0  0  0  0  0  0  0  0
   -0.7500   -1.2990    0.0000 C   0  0  0  0  0  0  0  0  0  0  0  0
   -2.0490   -0.5490    0.0000 F   0  0  0  0  0  0  0  0  0  0  0  0
    0.5490   -2.0490    0.0000 F   0  0  0  0  0  0  0  0  0  0  0  0
    0.0000    0.0000    0.0000 C   0  0  0  0  0  0  0  0  0  0  0  0
    1.5000    0.0000    0.0000 C   0  0  0  0  0  0  0  0  0  0  0  0
    2.2500    1.2990    0.0000 C   0  0  0  0  0  0  0  0  0  0  0  0
    3.5490    0.5490    0.0000 F   0  0  0  0  0  0  0  0  0  0  0  0
    0.9510    2.0490    0.0000 F   0  0  0  0  0  0  0  0  0  0  0  0
    3.0000    2.5981    0.0000 C   0  0  0  0  0  0  0  0  0  0  0  0
    1.7010    3.3481    0.0000 F   0  0  0  0  0  0  0  0  0  0  0  0
    4.2990    1.8481    0.0000 F   0  0  0  0  0  0  0  0  0  0  0  0
    3.7500    3.8971    0.0000 C   0  0  0  0  0  0  0  0  0  0  0  0
    5.0490    3.1471    0.0000 F   0  0  0  0  0  0  0  0  0  0  0  0
    2.4510    4.6471    0.0000 F   0  0  0  0  0  0  0  0  0  0  0  0
    4.5000    5.1962    0.0000 C   0  0  0  0  0  0  0  0  0  0  0  0
    3.2010    5.9462    0.0000 F   0  0  0  0  0  0  0  0  0  0  0  0
    5.7990    4.4462    0.0000 F   0  0  0  0  0  0  0  0  0  0  0  0
    5.2500    6.4952    0.0000 C   0  0  0  0  0  0  0  0  0  0  0  0
    6.5490    5.7452    0.0000 F   0  0  0  0  0  0  0  0  0  0  0  0
    3.9510    7.2452    0.0000 F   0  0  0  0  0  0  0  0  0  0  0  0
    6.0000    7.7942    0.0000 C   0  0  0  0  0  0  0  0  0  0  0  0
    6.7500    9.0933    0.0000 F   0  0  0  0  0  0  0  0  0  0  0  0
    4.7010    8.5442    0.0000 F   0  0  0  0  0  0  0  0  0  0  0  0
    7.2990    7.0442    0.0000 F   0  0  0  0  0  0  0  0  0  0  0  0
  1  2  1  0
  2  3  1  0
  2  4  1  0
  2  5  1  0
  5  6  1  0
  5  7  1  0
  5  8  1  0
  8  9  1  0
  8 10  1  0
  8 11  1  0
 11 12  1  0
 11 13  1  0
 11 14  1  0
 14 15  2  0
 15 16  1  0
 16 17  1  0
 16 18  1  0
 16 19  1  0
 19 20  1  0
 19 21  1  0
 19 22  1  0
 22 23  1  0
 22 24  1  0
 22 25  1  0
 25 26  1  0
 25 27  1  0
 25 28  1  0
 28 29  1  0
 28 30  1  0
 28 31  1  0
 31 32  1  0
 31 33  1  0
 31 34  1  0
M  END
$$$$

     RDKit          2D

 23 22  0  0  0  0  0  0  0  0999 V2000
    0.0000    0.0000    0.0000 C   0  0  0  0  0  0  0  0  0  0  0  0
    1.2990    0.7500    0.0000 C   0  0  0  0  0  0  0  0  0  0  0  0
    2.5981   -0.0000    0.0000 O   0  0  0  0  0  0  0  0  0  0  0  0
    3.8971    0.7500    0.0000 P   0  0  0  0  0  0  0  0  0  0  0  0
    4.6471   -0.5490    0.0000 O   0  0  0  0  0  0  0  0  0  0  0  0
    3.1471    2.0490    0.0000 C   0  0  0  0  0  0  0  0  0  0  0  0
    3.8971    3.3481    0.0000 C   0  0  0  0  0  0  0  0  0  0  0  0
    3.1471    4.6471    0.0000 C   0  0  0  0  0  0  0  0  0  0  0  0
    4.4462    5.3971    0.0000 F   0  0  0  0  0  0  0  0  0  0  0  0
    1.8481    3.8971    0.0000 F   0  0  0  0  0  0  0  0  0  0  0  0
    2.3971    5.9462    0.0000 C   0  0  0  0  0  0  0  0  0  0  0  0
    1.0981    5.1962    0.0000 F   0  0  0  0  0  0  0  0  0  0  0  0
    3.6962    6.6962    0.0000 F   0  0  0  0  0  0  0  0  0  0  0  0
    1.6471    7.2452    0.0000 C   0  0  0  0  0  0  0  0  0  0  0  0
    2.9462    7.9952    0.0000 F   0  0  0  0  0  0  0  0  0  0  0  0
    0.3481    6.4952    0.0000 F   0  0  0  0  0  0  0  0  0  0  0  0
    0.8971    8.5442    0.0000 C   0  0  0  0  0  0  0  0  0  0  0  0
    0.1471    9.8433    0.0000 F   0  0  0  0  0  0  0  0  0  0  0  0
   -0.4019    7.7942    0.0000 F   0  0  0  0  0  0  0  0  0  0  0  0
    2.1962    9.2942    0.0000 F   0  0  0  0  0  0  0  0  0  0  0  0
    5.1962    1.5000    0.0000 O   0  0  0  0  0  0  0  0  0  0  0  0
    5.1962    3.0000    0.0000 C   0  0  0  0  0  0  0  0  0  0  0  0
    6.4952    3.7500    0.0000 C   0  0  0  0  0  0  0  0  0  0  0  0
  1  2  1  0
  2  3  1  0
  3  4  1  0
  4  5  2  0
  4  6  1  0
  6  7  1  0
  7  8  1  0
  8  9  1  0
  8 10  1  0
  8 11  1  0
 11 12  1  0
 11 13  1  0
 11 14  1  0
 14 15  1  0
 14 16  1  0
 14 17  1  0
 17 18  1  0
 17 19  1  0
 17 20  1  0
  4 21  1  0
 21 22  1  0
 22 23  1  0
M  END
$$$$

     RDKit          2D

 32 30  0  0  0  0  0  0  0  0999 V2000
   -2.5981    1.5000    0.0000 O   0  0  0  0  0  0  0  0  0  0  0  0
   -1.2990    0.7500    0.0000 P   0  0  0  0  0  0  0  0  0  0  0  0
   -2.0490   -0.5490    0.0000 O   0  0  0  0  0  0  0  0  0  0  0  0
   -0.5490    2.0490    0.0000 O   0  0  0  0  0  0  0  0  0  0  0  0
    0.0000    0.0000    0.0000 C   0  0  0  0  0  0  0  0  0  0  0  0
    1.2990    0.7500    0.0000 C   0  0  0  0  0  0  0  0  0  0  0  0
    2.5981   -0.0000    0.0000 C   0  0  0  0  0  0  0  0  0  0  0  0
    3.3481    1.2990    0.0000 F   0  0  0  0  0  0  0  0  0  0  0  0
    1.8481   -1.2990    0.0000 F   0  0  0  0  0  0  0  0  0  0  0  0
    3.8971   -0.7500    0.0000 C   0  0  0  0  0  0  0  0  0  0  0  0
    3.1471   -2.0490    0.0000 F   0  0  0  0  0  0  0  0  0  0  0  0
    4.6471    0.5490    0.0000 F   0  0  0  0  0  0  0  0  0  0  0  0
    5.1962   -1.5000    0.0000 C   0  0  0  0  0  0  0  0  0  0  0  0
    5.9462   -0.2010    0.0000 F   0  0  0  0  0  0  0  0  0  0  0  0
    4.4462   -2.7990    0.0000 F   0  0  0  0  0  0  0  0  0  0  0  0
    6.4952   -2.2500    0.0000 C   0  0  0  0  0  0  0  0  0  0  0  0
    5.7452   -3.5490    0.0000 F   0  0  0  0  0  0  0  0  0  0  0  0
    7.2452   -0.9510    0.0000 F   0  0  0  0  0  0  0  0  0  0  0  0
    7.7942   -3.0000    0.0000 C   0  0  0  0  0  0  0  0  0  0  0  0
    8.5442   -1.7010    0.0000 F   0  0  0  0  0  0  0  0  0  0  0  0
    7.0442   -4.2990    0.0000 F   0  0  0  0  0  0  0  0  0  0  0  0
    9.0933   -3.7500    0.0000 C   0  0  0  0  0  0  0  0  0  0  0  0
    8.3433   -5.0490    0.0000 F   0  0  0  0  0  0  0  0  0  0  0  0
    9.8433   -2.4510    0.0000 F   0  0  0  0  0  0  0  0  0  0  0  0
   10.3923   -4.5000    0.0000 C   0  0  0  0  0  0  0  0  0  0  0  0
   11.1423   -3.2010    0.0000 F   0  0  0  0  0  0  0  0  0  0  0  0
    9.6423   -5.7990    0.0000 F   0  0  0  0  0  0  0  0  0  0  0  0
   11.6913   -5.2500    0.0000 C   0  0  0  0  0  0  0  0  0  0  0  0
   12.9904   -6.0000    0.0000 F   0  0  0  0  0  0  0  0  0  0  0  0
   10.9413   -6.5490    0.0000 F   0  0  0  0  0  0  0  0  0  0  0  0
   12.4413   -3.9510    0.0000 F   0  0  0  0  0  0  0  0  0  0  0  0
    0.0000    3.0490    0.0000 Na  0  0  0  0  0 15  0  0  0  0  0  0
  1  2  2  0
  2  3  1  0
  2  4  1  0
  2  5  1  0
  5  6  1  0
  6  7  1  0
  7  8  1  0
  7  9  1  0
  7 10  1  0
 10 11  1  0
 10 12  1  0
 10 13  1  0
 13 14  1  0
 13 15  1  0
 13 16  1  0
 16 17  1  0
 16 18  1  0
 16 19  1  0
 19 20  1  0
 19 21  1  0
 19 22  1  0
 22 23  1  0
 22 24  1  0
 22 25  1  0
 25 26  1  0
 25 27  1  0
 25 28  1  0
 28 29  1  0
 28 30  1  0
 28 31  1  0
M  CHG  2   3  -1  32   1
M  END
$$$$

     RDKit          2D

 22 22  0  0  0  0  0  0  0  0999 V2000
    3.7500   -1.2990    0.0000 N   0  0  0  0  0  0  0  0  0  0  0  0
    3.0000    0.0000    0.0000 C   0  0  0  0  0  0  0  0  0  0  0  0
    3.7500    1.2990    0.0000 O   0  0  0  0  0  0  0  0  0  0  0  0
    1.5000    0.0000    0.0000 C   0  0  0  0  0  0  0  0  0  0  0  0
    0.7500   -1.2990    0.0000 C   0  0  0  0  0  0  0  0  0  0  0  0
   -0.7500   -1.2990    0.0000 C   0  0  0  0  0  0  0  0  0  0  0  0
   -1.5000    0.0000    0.0000 C   0  0  0  0  0  0  0  0  0  0  0  0
   -3.0000    0.0000    0.0000 C   0  0  0  0  0  0  0  0  0  0  0  0
   -3.0000    1.5000    0.0000 F   0  0  0  0  0  0  0  0  0  0  0  0
   -3.0000   -1.5000    0.0000 F   0  0  0  0  0  0  0  0  0  0  0  0
   -4.5000    0.0000    0.0000 C   0  0  0  0  0  0  0  0  0  0  0  0
   -4.5000   -1.5000    0.0000 F   0  0  0  0  0  0  0  0  0  0  0  0
   -4.5000    1.5000    0.0000 F   0  0  0  0  0  0  0  0  0  0  0  0
   -6.0000    0.0000    0.0000 C   0  0  0  0  0  0  0  0  0  0  0  0
   -6.0000    1.5000    0.0000 F   0  0  0  0  0  0  0  0  0  0  0  0
   -6.0000   -1.5000    0.0000 F   0  0  0  0  0  0  0  0  0  0  0  0
   -7.5000    0.0000    0.0000 C   0  0  0  0  0  0  0  0  0  0  0  0
   -9.0000    0.0000    0.0000 F   0  0  0  0  0  0  0  0  0  0  0  0
   -7.5000   -1.5000    0.0000 F   0  0  0  0  0  0  0  0  0  0  0  0
   -7.5000    1.5000    0.0000 F   0  0  0  0  0  0  0  0  0  0  0  0
   -0.7500    1.2990    0.0000 C   0  0  0  0  0  0  0  0  0  0  0  0
    0.7500    1.2990    0.0000 C   0  0  0  0  0  0  0  0  0  0  0  0
  1  2  1  0
  2  3  2  0
  4  2  1  1
  4  5  1  0
  5  6  1  0
  6  7  1  0
  7  8  1  1
  8  9  1  0
  8 10  1  0
  8 11  1  0
 11 12  1  0
 11 13  1  0
 11 14  1  0
 14 15  1  0
 14 16  1  0
 14 17  1  0
 17 18  1  0
 17 19  1  0
 17 20  1  0
  7 21  1  0
 21 22  1  0
 22  4  1  0
M  END
$$$$

     RDKit          2D

 27 28  0  0  0  0  0  0  0  0999 V2000
    2.4510   -0.5490    0.0000 O   0  0  0  0  0  0  0  0  0  0  0  0
    3.7500   -1.2990    0.0000 P   0  0  0  0  0  0  0  0  0  0  0  0
    4.5000   -0.0000    0.0000 O   0  0  0  0  0  0  0  0  0  0  0  0
    3.0000   -2.5981    0.0000 O   0  0  0  0  0  0  0  0  0  0  0  0
    1.5000   -2.5981    0.0000 C   0  0  0  0  0  0  0  0  0  0  0  0
    0.7500   -1.2990    0.0000 C   0  0  0  0  0  0  0  0  0  0  0  0
    1.5000    0.0000    0.0000 C   0  0  0  0  0  0  0  0  0  0  0  0
    0.7500    1.2990    0.0000 C   0  0  0  0  0  0  0  0  0  0  0  0
   -0.7500    1.2990    0.0000 C   0  0  0  0  0  0  0  0  0  0  0  0
   -1.5000    0.0000    0.0000 C   0  0  0  0  0  0  0  0  0  0  0  0
   -0.7500   -1.2990    0.0000 C   0  0  0  0  0  0  0  0  0  0  0  0
    0.7500   -3.8971    0.0000 C   0  0  0  0  0  0  0  0  0  0  0  0
    2.0490   -4.6471    0.0000 F   0  0  0  0  0  0  0  0  0  0  0  0
   -0.5490   -3.1471    0.0000 F   0  0  0  0  0  0  0  0  0  0  0  0
   -0.0000   -5.1962    0.0000 C   0  0  0  0  0  0  0  0  0  0  0  0
   -1.2990   -4.4462    0.0000 F   0  0  0  0  0  0  0  0  0  0  0  0
    1.2990   -5.9462    0.0000 F   0  0  0  0  0  0  0  0  0  0  0  0
   -0.7500   -6.4952    0.0000 C   0  0  0  0  0  0  0  0  0  0  0  0
   -1.5000   -7.7942    0.0000 F   0  0  0  0  0  0  0  0  0  0  0  0
    0.5490   -7.2452    0.0000 F   0  0  0  0  0  0  0  0  0  0  0  0
   -2.0490   -5.7452    0.0000 F   0  0  0  0  0  0  0  0  0  0  0  0
    5.0490   -2.0490    0.0000 C   0  0  0  0  0  0  0  0  0  0  0  0
    6.3481   -1.2990    0.0000 C   0  0  0  0  0  0  0  0  0  0  0  0
    7.6471   -2.0490    0.0000 C   0  0  0  0  0  0  0  0  0  0  0  0
    7.6471   -3.5490    0.0000 C   0  0  0  0  0  0  0  0  0  0  0  0
    6.3481   -4.2990    0.0000 C   0  0  0  0  0  0  0  0  0  0  0  0
    5.0490   -3.5490    0.0000 C   0  0  0  0  0  0  0  0  0  0  0  0
  1  2  2  0
  2  3  1  0
  2  4  1  0
  4  5  1  0
  5  6  1  0
  6  7  2  0
  7  8  1  0
  8  9  2  0
  9 10  1  0
 10 11  2  0
  5 12  1  0
 12 13  1  0
 12 14  1  0
 12 15  1  0
 15 16  1  0
 15 17  1  0
 15 18  1  0
 18 19  1  0
 18 20  1  0
 18 21  1  0
  2 22  1  0
 22 23  2  0
 23 24  1  0
 24 25  2  0
 25 26  1  0
 26 27  2  0
 11  6  1  0
 27 22  1  0
M  END
$$$$

     RDKit          2D

 31 34  0  0  0  0  0  0  0  0999 V2000
    5.2500   -3.8971    0.0000 O   0  0  0  0  0  0  0  0  0  0  0  0
    3.7500   -3.8971    0.0000 C   0  0  0  0  0  0  0  0  0  0  0  0
    3.0000   -5.1962    0.0000 C   0  0  0  0  0  0  0  0  0  0  0  0
    1.5000   -5.1962    0.0000 C   0  0  0  0  0  0  0  0  0  0  0  0
    0.7500   -6.4952    0.0000 C   0  0  0  0  0  0  0  0  0  0  0  0
    2.0490   -7.2452    0.0000 F   0  0  0  0  0  0  0  0  0  0  0  0
   -0.5490   -5.7452    0.0000 F   0  0  0  0  0  0  0  0  0  0  0  0
   -0.0000   -7.7942    0.0000 C   0  0  0  0  0  0  0  0  0  0  0  0
   -1.2990   -7.0442    0.0000 F   0  0  0  0  0  0  0  0  0  0  0  0
    1.2990   -8.5442    0.0000 F   0  0  0  0  0  0  0  0  0  0  0  0
   -0.7500   -9.0933    0.0000 C   0  0  0  0  0  0  0  0  0  0  0  0
    0.5490   -9.8433    0.0000 F   0  0  0  0  0  0  0  0  0  0  0  0
   -2.0490   -8.3433    0.0000 F   0  0  0  0  0  0  0  0  0  0  0  0
   -1.5000  -10.3923    0.0000 C   0  0  0  0  0  0  0  0  0  0  0  0
   -2.2500  -11.6913    0.0000 F   0  0  0  0  0  0  0  0  0  0  0  0
   -2.7990   -9.6423    0.0000 F   0  0  0  0  0  0  0  0  0  0  0  0
   -0.2010  -11.1423    0.0000 F   0  0  0  0  0  0  0  0  0  0  0  0
    0.7500   -3.8971    0.0000 C   0  0  0  0  0  0  0  0  0  0  0  0
   -0.7500   -3.8971    0.0000 C   0  0  0  0  0  0  0  0  0  0  0  0
   -1.5000   -2.5981    0.0000 C   0  0  0  0  0  0  0  0  0  0  0  0
   -0.7500   -1.2990    0.0000 C   0  0  0  0  0  0  0  0  0  0  0  0
    0.7500   -1.2990    0.0000 C   0  0  0  0  0  0  0  0  0  0  0  0
    1.5000   -2.5981    0.0000 C   0  0  0  0  0  0  0  0  0  0  0  0
    3.0000   -2.5981    0.0000 O   0  0  0  0  0  0  0  0  0  0  0  0
    1.5000    0.0000    0.0000 C   0  0  0  0  0  0  0  0  0  0  0  0
    0.7500    1.2990    0.0000 C   0  0  0  0  0  0  0  0  0  0  0  0
   -0.7500    1.2990    0.0000 C   0  0  0  0  0  0  0  0  0  0  0  0
   -1.5000    0.0000    0.0000 N   0  0  0  0  0  0  0  0  0  0  0  0
   -3.0000   -0.0000    0.0000 C   0  0  0  0  0  0  0  0  0  0  0  0
   -3.7500   -1.2990    0.0000 C   0  0  0  0  0  0  0  0  0  0  0  0
   -3.0000   -2.5981    0.0000 C   0  0  0  0  0  0  0  0  0  0  0  0
  1  2  2  0
  2  3  1  0
  3  4  2  0
  4  5  1  0
  5  6  1  0
  5  7  1  0
  5  8  1  0
  8  9  1  0
  8 10  1  0
  8 11  1  0
 11 12  1  0
 11 13  1  0
 11 14  1  0
 14 15  1  0
 14 16  1  0
 14 17  1  0
  4 18  1  0
 18 19  2  0
 19 20  1  0
 20 21  2  0
 21 22  1  0
 22 23  2  0
 23 24  1  0
 22 25  1  0
 25 26  1  0
 26 27  1  0
 27 28  1  0
 28 29  1  0
 29 30  1  0
 30 31  1  0
 24  2  1  0
 23 18  1  0
 31 20  1  0
 28 21  1  0
M  END
$$$$

     RDKit          2D

 13 12  0  0  0  0  0  0  0  0999 V2000
   -2.2500   -3.8971    0.0000 F   0  0  0  0  0  0  0  0  0  0  0  0
   -1.5000   -2.5981    0.0000 C   0  0  0  0  0  0  0  0  0  0  0  0
   -2.3153   -2.2520    0.0000 F   0  0  0  0  0  0  0  0  0  0  0  0
   -0.2010   -3.3481    0.0000 F   0  0  0  0  0  0  0  0  0  0  0  0
   -0.7500   -1.2990    0.0000 C   0  0  0  0  0  0  0  0  0  0  0  0
    0.5490   -2.0490    0.0000 F   0  0  0  0  0  0  0  0  0  0  0  0
    0.0000    0.0000    0.0000 C   0  0  0  0  0  0  0  0  0  0  0  0
    1.5000    0.0000    0.0000 C   0  0  0  0  0  0  0  0  0  0  0  0
    2.2500    1.2990    0.0000 I   0  0  0  0  0  0  0  0  0  0  0  0
   -2.0490   -0.5490    0.0000 C   0  0  0  0  0  0  0  0  0  0  0  0
   -3.3481    0.2010    0.0000 F   0  0  0  0  0  0  0  0  0  0  0  0
   -2.5821   -1.2564    0.0000 F   0  0  0  0  0  0  0  0  0  0  0  0
   -1.2990    0.7500    0.0000 F   0  0  0  0  0  0  0  0  0  0  0  0
  1  2  1  0
  2  3  1  0
  2  4  1  0
  2  5  1  0
  5  6  1  0
  5  7  1  0
  7  8  2  0
  8  9  1  0
  5 10  1  0
 10 11  1  0
 10 12  1  0
 10 13  1  0
M  END
$$$$

     RDKit          2D

 66 60  0  0  0  0  0  0  0  0999 V2000
    1.2990    2.2500    0.0000 O   0  0  0  0  0  0  0  0  0  0  0  0
    1.2990    0.7500    0.0000 C   0  0  0  0  0  0  0  0  0  0  0  0
    2.5981   -0.0000    0.0000 O   0  0  0  0  0  0  0  0  0  0  0  0
    0.0000    0.0000    0.0000 C   0  0  0  0  0  0  0  0  0  0  0  0
   -1.2990    0.7500    0.0000 N   0  0  0  0  0  0  0  0  0  0  0  0
   -2.5981    0.0000    0.0000 C   0  0  0  0  0  0  0  0  0  0  0  0
   -3.8971    0.7500    0.0000 C   0  0  0  0  0  0  0  0  0  0  0  0
   -5.1962    0.0000    0.0000 N   0  0  0  0  0  0  0  0  0  0  0  0
   -6.4952    0.7500    0.0000 C   0  0  0  0  0  0  0  0  0  0  0  0
   -7.7942    0.0000    0.0000 C   0  0  0  0  0  0  0  0  0  0  0  0
   -9.0933    0.7500    0.0000 N   0  0  0  0  0  0  0  0  0  0  0  0
  -10.3923    0.0000    0.0000 C   0  0  0  0  0  0  0  0  0  0  0  0
  -11.6913    0.7500    0.0000 C   0  0  0  0  0  0  0  0  0  0  0  0
  -12.9904    0.0000    0.0000 N   0  0  0  0  0  0  0  0  0  0  0  0
  -14.2894    0.7500    0.0000 C   0  0  0  0  0  0  0  0  0  0  0  0
  -15.5885    0.0000    0.0000 C   0  0  0  0  0  0  0  0  0  0  0  0
  -16.8875    0.7500    0.0000 N   0  0  0  0  0  0  0  0  0  0  0  0
  -18.1865    0.0000    0.0000 C   0  0  0  0  0  0  0  0  0  0  0  0
  -19.4856    0.7500    0.0000 C   0  0  0  0  0  0  0  0  0  0  0  0
  -19.6684    2.2388    0.0000 O   0  0  0  0  0  0  0  0  0  0  0  0
  -20.7846    0.0000    0.0000 O   0  0  0  0  0  0  0  0  0  0  0  0
  -16.8875    2.2500    0.0000 S   0  0  0  0  0  0  0  0  0  0  0  0
  -15.3875    2.2500    0.0000 O   0  0  0  0  0  0  0  0  0  0  0  0
  -17.6787    2.1528    0.0000 O   0  0  0  0  0  0  0  0  0  0  0  0
  -16.8875    3.7500    0.0000 C   0  0  0  0  0  0  0  0  0  0  0  0
  -15.3875    3.7500    0.0000 F   0  0  0  0  0  0  0  0  0  0  0  0
  -16.8875    5.2500    0.0000 F   0  0  0  0  0  0  0  0  0  0  0  0
  -18.3875    3.7500    0.0000 C   0  0  0  0  0  0  0  0  0  0  0  0
  -18.3875    5.2500    0.0000 F   0  0  0  0  0  0  0  0  0  0  0  0
  -18.4955    2.8709    0.0000 F   0  0  0  0  0  0  0  0  0  0  0  0
  -19.8875    3.7500    0.0000 C   0  0  0  0  0  0  0  0  0  0  0  0
  -19.8875    5.2500    0.0000 F   0  0  0  0  0  0  0  0  0  0  0  0
  -20.0703    2.2612    0.0000 F   0  0  0  0  0  0  0  0  0  0  0  0
  -21.3875    3.7500    0.0000 C   0  0  0  0  0  0  0  0  0  0  0  0
  -21.3875    5.2500    0.0000 F   0  0  0  0  0  0  0  0  0  0  0  0
  -21.3875    2.2500    0.0000 F   0  0  0  0  0  0  0  0  0  0  0  0
  -22.8875    3.7500    0.0000 C   0  0  0  0  0  0  0  0  0  0  0  0
  -22.8875    2.2500    0.0000 F   0  0  0  0  0  0  0  0  0  0  0  0
  -22.8875    5.2500    0.0000 F   0  0  0  0  0  0  0  0  0  0  0  0
  -24.3875    3.7500    0.0000 C   0  0  0  0  0  0  0  0  0  0  0  0
  -24.3875    2.2500    0.0000 F   0  0  0  0  0  0  0  0  0  0  0  0
  -24.3875    5.2500    0.0000 F   0  0  0  0  0  0  0  0  0  0  0  0
  -25.8875    3.7500    0.0000 C   0  0  0  0  0  0  0  0  0  0  0  0
  -25.8875    2.2500    0.0000 F   0  0  0  0  0  0  0  0  0  0  0  0
  -25.8875    5.2500    0.0000 F   0  0  0  0  0  0  0  0  0  0  0  0
  -27.3875    3.7500    0.0000 C   0  0  0  0  0  0  0  0  0  0  0  0
  -28.8875    3.7500    0.0000 F   0  0  0  0  0  0  0  0  0  0  0  0
  -27.3875    5.2500    0.0000 F   0  0  0  0  0  0  0  0  0  0  0  0
  -27.3875    2.2500    0.0000 F   0  0  0  0  0  0  0  0  0  0  0  0
  -12.9904   -1.5000    0.0000 C   0  0  0  0  0  0  0  0  0  0  0  0
  -14.2894   -2.2500    0.0000 C   0  0  0  0  0  0  0  0  0  0  0  0
  -15.5885   -1.5000    0.0000 O   0  0  0  0  0  0  0  0  0  0  0  0
  -14.2894   -3.7500    0.0000 O   0  0  0  0  0  0  0  0  0  0  0  0
   -9.0933    2.2500    0.0000 C   0  0  0  0  0  0  0  0  0  0  0  0
  -10.3923    3.0000    0.0000 C   0  0  0  0  0  0  0  0  0  0  0  0
  -11.6913    2.2500    0.0000 O   0  0  0  0  0  0  0  0  0  0  0  0
  -10.3923    4.5000    0.0000 O   0  0  0  0  0  0  0  0  0  0  0  0
   -5.1962   -1.5000    0.0000 C   0  0  0  0  0  0  0  0  0  0  0  0
   -6.4952   -2.2500    0.0000 C   0  0  0  0  0  0  0  0  0  0  0  0
   -7.7942   -1.5000    0.0000 O   0  0  0  0  0  0  0  0  0  0  0  0
   -6.4952   -3.7500    0.0000 O   0  0  0  0  0  0  0  0  0  0  0  0
    0.0000    6.2500    0.0000 K   0  0  0  0  0 15  0  0  0  0  0  0
    0.0000    7.2500    0.0000 K   0  0  0  0  0 15  0  0  0  0  0  0
    0.0000    8.2500    0.0000 K   0  0  0  0  0 15  0  0  0  0  0  0
    0.0000    9.2500    0.0000 K   0  0  0  0  0 15  0  0  0  0  0  0
    0.0000   10.2500    0.0000 K   0  0  0  0  0 15  0  0  0  0  0  0
  1  2  2  0
  2  3  1  0
  2  4  1  0
  4  5  1  0
  5  6  1  0
  6  7  1  0
  7  8  1  0
  8  9  1  0
  9 10  1  0
 10 11  1  0
 11 12  1  0
 12 13  1  0
 13 14  1  0
 14 15  1  0
 15 16  1  0
 16 17  1  0
 17 18  1  0
 18 19  1  0
 19 20  2  0
 19 21  1  0
 17 22  1  0
 22 23  2  0
 22 24  2  0
 22 25  1  0
 25 26  1  0
 25 27  1  0
 25 28  1  0
 28 29  1  0
 28 30  1  0
 28 31  1  0
 31 32  1  0
 31 33  1  0
 31 34  1  0
 34 35  1  0
 34 36  1  0
 34 37  1  0
 37 38  1  0
 37 39  1  0
 37 40  1  0
 40 41  1  0
 40 42  1  0
 40 43  1  0
 43 44  1  0
 43 45  1  0
 43 46  1  0
 46 47  1  0
 46 48  1  0
 46 49  1  0
 14 50  1  0
 50 51  1  0
 51 52  2  0
 51 53  1  0
 11 54  1  0
 54 55  1  0
 55 56  2  0
 55 57  1  0
  8 58  1  0
 58 59  1  0
 59 60  2  0
 59 61  1  0
M  CHG  8   3  -1  21  -1  53  -1  57  -1  61  -1  62   1  63   1  64   1
M  CHG  2  65   1  66   1
M  END
$$$$

     RDKit          2D

 19 18  0  0  0  0  0  0  0  0999 V2000
   -1.2990    0.7500    0.0000 O   0  0  0  0  0  0  0  0  0  0  0  0
    0.0000    0.0000    0.0000 C   0  0  0  0  0  0  0  0  0  0  0  0
   -0.0000   -1.5000    0.0000 O   0  0  0  0  0  0  0  0  0  0  0  0
    1.2990    0.7500    0.0000 C   0  0  0  0  0  0  0  0  0  0  0  0
    2.0490   -0.5490    0.0000 F   0  0  0  0  0  0  0  0  0  0  0  0
    0.5490    2.0490    0.0000 F   0  0  0  0  0  0  0  0  0  0  0  0
    2.5981    1.5000    0.0000 C   0  0  0  0  0  0  0  0  0  0  0  0
    1.8481    2.7990    0.0000 F   0  0  0  0  0  0  0  0  0  0  0  0
    3.3481    0.2010    0.0000 F   0  0  0  0  0  0  0  0  0  0  0  0
    3.8971    2.2500    0.0000 C   0  0  0  0  0  0  0  0  0  0  0  0
    4.6471    0.9510    0.0000 F   0  0  0  0  0  0  0  0  0  0  0  0
    3.1471    3.5490    0.0000 F   0  0  0  0  0  0  0  0  0  0  0  0
    5.1962    3.0000    0.0000 C   0  0  0  0  0  0  0  0  0  0  0  0
    4.4462    4.2990    0.0000 F   0  0  0  0  0  0  0  0  0  0  0  0
    5.9462    1.7010    0.0000 F   0  0  0  0  0  0  0  0  0  0  0  0
    6.4952    3.7500    0.0000 C   0  0  0  0  0  0  0  0  0  0  0  0
    7.7942    4.5000    0.0000 F   0  0  0  0  0  0  0  0  0  0  0  0
    7.2452    2.4510    0.0000 F   0  0  0  0  0  0  0  0  0  0  0  0
    5.7452    5.0490    0.0000 F   0  0  0  0  0  0  0  0  0  0  0  0
  1  2  1  0
  2  3  1  0
  2  4  1  0
  4  5  1  0
  4  6  1  0
  4  7  1  0
  7  8  1  0
  7  9  1  0
  7 10  1  0
 10 11  1  0
 10 12  1  0
 10 13  1  0
 13 14  1  0
 13 15  1  0
 13 16  1  0
 16 17  1  0
 16 18  1  0
 16 19  1  0
M  END
$$$$

     RDKit          2D

 24 23  0  0  0  0  0  0  0  0999 V2000
    1.2990   -2.2500    0.0000 F   0  0  0  0  0  0  0  0  0  0  0  0
   -0.0000   -1.5000    0.0000 I   0  0  0  0  0  0  0  0  0  0  0  0
   -1.2990   -2.2500    0.0000 F   0  0  0  0  0  0  0  0  0  0  0  0
    0.0000    0.0000    0.0000 C   0  0  0  0  0  0  0  0  0  0  0  0
    0.0000    1.5000    0.0000 C   0  0  0  0  0  0  0  0  0  0  0  0
    0.0000    3.0000    0.0000 C   0  0  0  0  0  0  0  0  0  0  0  0
   -1.5000    3.0000    0.0000 F   0  0  0  0  0  0  0  0  0  0  0  0
    1.5000    3.0000    0.0000 F   0  0  0  0  0  0  0  0  0  0  0  0
    0.0000    4.5000    0.0000 C   0  0  0  0  0  0  0  0  0  0  0  0
    1.5000    4.5000    0.0000 F   0  0  0  0  0  0  0  0  0  0  0  0
   -1.5000    4.5000    0.0000 F   0  0  0  0  0  0  0  0  0  0  0  0
    0.0000    6.0000    0.0000 C   0  0  0  0  0  0  0  0  0  0  0  0
   -1.5000    6.0000    0.0000 F   0  0  0  0  0  0  0  0  0  0  0  0
    1.5000    6.0000    0.0000 F   0  0  0  0  0  0  0  0  0  0  0  0
    0.0000    7.5000    0.0000 C   0  0  0  0  0  0  0  0  0  0  0  0
    1.5000    7.5000    0.0000 F   0  0  0  0  0  0  0  0  0  0  0  0
   -1.5000    7.5000    0.0000 F   0  0  0  0  0  0  0  0  0  0  0  0
    0.0000    9.0000    0.0000 C   0  0  0  0  0  0  0  0  0  0  0  0
   -1.5000    9.0000    0.0000 F   0  0  0  0  0  0  0  0  0  0  0  0
    1.5000    9.0000    0.0000 F   0  0  0  0  0  0  0  0  0  0  0  0
    0.0000   10.5000    0.0000 C   0  0  0  0  0  0  0  0  0  0  0  0
    0.0000   12.0000    0.0000 F   0  0  0  0  0  0  0  0  0  0  0  0
    1.5000   10.5000    0.0000 F   0  0  0  0  0  0  0  0  0  0  0  0
   -1.5000   10.5000    0.0000 F   0  0  0  0  0  0  0  0  0  0  0  0
  1  2  1  0
  2  3  1  0
  2  4  1  0
  4  5  3  0
  5  6  1  0
  6  7  1  0
  6  8  1  0
  6  9  1  0
  9 10  1  0
  9 11  1  0
  9 12  1  0
 12 13  1  0
 12 14  1  0
 12 15  1  0
 15 16  1  0
 15 17  1  0
 15 18  1  0
 18 19  1  0
 18 20  1  0
 18 21  1  0
 21 22  1  0
 21 23  1  0
 21 24  1  0
M  END
$$$$

     RDKit          2D

 40 36  0  0  0  0  0  0  0  0999 V2000
   -2.2500   -2.7990    0.0000 C   0  0  0  0  0  0  0  0  0  0  0  0
   -2.2500   -1.2990    0.0000 C   0  0  0  0  0  0  0  0  0  0  0  0
   -2.2500    0.2010    0.0000 C   0  0  0  0  0  0  0  0  0  0  0  0
   -3.7500   -1.2990    0.0000 C   0  0  0  0  0  0  0  0  0  0  0  0
   -0.7500   -1.2990    0.0000 C   0  0  0  0  0  0  0  0  0  0  0  0
    0.0000   -2.5981    0.0000 O   0  0  0  0  0  0  0  0  0  0  0  0
    0.0000    0.0000    0.0000 C   0  0  0  0  0  0  0  0  0  0  0  0
    1.5000    0.0000    0.0000 C   0  0  0  0  0  0  0  0  0  0  0  0
    2.2500   -1.2990    0.0000 O   0  0  0  0  0  0  0  0  0  0  0  0
    2.2500    1.2990    0.0000 C   0  0  0  0  0  0  0  0  0  0  0  0
    3.5490    0.5490    0.0000 F   0  0  0  0  0  0  0  0  0  0  0  0
    0.9510    2.0490    0.0000 F   0  0  0  0  0  0  0  0  0  0  0  0
    3.0000    2.5981    0.0000 C   0  0  0  0  0  0  0  0  0  0  0  0
    1.7010    3.3481    0.0000 F   0  0  0  0  0  0  0  0  0  0  0  0
    4.2990    1.8481    0.0000 F   0  0  0  0  0  0  0  0  0  0  0  0
    3.7500    3.8971    0.0000 C   0  0  0  0  0  0  0  0  0  0  0  0
    4.5000    5.1962    0.0000 F   0  0  0  0  0  0  0  0  0  0  0  0
    5.0490    3.1471    0.0000 F   0  0  0  0  0  0  0  0  0  0  0  0
    2.4510    4.6471    0.0000 F   0  0  0  0  0  0  0  0  0  0  0  0
   -2.2500    6.1962    0.0000 C   0  0  0  0  0  0  0  0  0  0  0  0
   -2.2500    7.6962    0.0000 C   0  0  0  0  0  0  0  0  0  0  0  0
   -2.2500    9.1962    0.0000 C   0  0  0  0  0  0  0  0  0  0  0  0
   -3.7500    7.6962    0.0000 C   0  0  0  0  0  0  0  0  0  0  0  0
   -0.7500    7.6962    0.0000 C   0  0  0  0  0  0  0  0  0  0  0  0
    0.0000    6.3971    0.0000 O   0  0  0  0  0  0  0  0  0  0  0  0
    0.0000    8.9952    0.0000 C   0  0  0  0  0  0  0  0  0  0  0  0
    1.5000    8.9952    0.0000 C   0  0  0  0  0  0  0  0  0  0  0  0
    2.2500    7.6962    0.0000 O   0  0  0  0  0  0  0  0  0  0  0  0
    2.2500   10.2942    0.0000 C   0  0  0  0  0  0  0  0  0  0  0  0
    3.5490    9.5442    0.0000 F   0  0  0  0  0  0  0  0  0  0  0  0
    0.9510   11.0442    0.0000 F   0  0  0  0  0  0  0  0  0  0  0  0
    3.0000   11.5933    0.0000 C   0  0  0  0  0  0  0  0  0  0  0  0
    1.7010   12.3433    0.0000 F   0  0  0  0  0  0  0  0  0  0  0  0
    4.2990   10.8433    0.0000 F   0  0  0  0  0  0  0  0  0  0  0  0
    3.7500   12.8923    0.0000 C   0  0  0  0  0  0  0  0  0  0  0  0
    4.5000   14.1913    0.0000 F   0  0  0  0  0  0  0  0  0  0  0  0
    5.0490   12.1423    0.0000 F   0  0  0  0  0  0  0  0  0  0  0  0
    2.4510   13.6423    0.0000 F   0  0  0  0  0  0  0  0  0  0  0  0
    6.0490    0.0000    0.0000 O   0  0  0  0  0  0  0  0  0  0  0  0
    7.0490    0.0000    0.0000 Ba  0  0  0  0  0 15  0  0  0  0  0  0
  1  2  1  0
  2  3  1  0
  2  4  1  0
  2  5  1  0
  5  6  2  0
  5  7  1  0
  7  8  2  0
  8  9  1  0
  8 10  1  0
 10 11  1  0
 10 12  1  0
 10 13  1  0
 13 14  1  0
 13 15  1  0
 13 16  1  0
 16 17  1  0
 16 18  1  0
 16 19  1  0
 20 21  1  0
 21 22  1  0
 21 23  1  0
 21 24  1  0
 24 25  2  0
 24 26  1  0
 26 27  2  0
 27 28  1  0
 27 29  1  0
 29 30  1  0
 29 31  1  0
 29 32  1  0
 32 33  1  0
 32 34  1  0
 32 35  1  0
 35 36  1  0
 35 37  1  0
 35 38  1  0
M  CHG  3   9  -1  28  -1  40   2
M  END
$$$$

     RDKit          2D

 27 26  0  0  0  0  0  0  0  0999 V2000
   -3.8971   -0.7500    0.0000 O   0  0  0  0  0  0  0  0  0  0  0  0
   -2.5981    0.0000    0.0000 P   0  0  0  0  0  0  0  0  0  0  0  0
   -3.3481    1.2990    0.0000 Cl  0  0  0  0  0  0  0  0  0  0  0  0
   -1.2990    0.7500    0.0000 O   0  0  0  0  0  0  0  0  0  0  0  0
    0.0000    0.0000    0.0000 C   0  0  0  0  0  0  0  0  0  0  0  0
    1.2990    0.7500    0.0000 C   0  0  0  0  0  0  0  0  0  0  0  0
    2.0490   -0.5490    0.0000 F   0  0  0  0  0  0  0  0  0  0  0  0
    0.5490    2.0490    0.0000 F   0  0  0  0  0  0  0  0  0  0  0  0
    2.5981    1.5000    0.0000 C   0  0  0  0  0  0  0  0  0  0  0  0
    1.8481    2.7990    0.0000 F   0  0  0  0  0  0  0  0  0  0  0  0
    3.3481    0.2010    0.0000 F   0  0  0  0  0  0  0  0  0  0  0  0
    3.8971    2.2500    0.0000 C   0  0  0  0  0  0  0  0  0  0  0  0
    5.1962    3.0000    0.0000 F   0  0  0  0  0  0  0  0  0  0  0  0
    4.6471    0.9510    0.0000 F   0  0  0  0  0  0  0  0  0  0  0  0
    3.1471    3.5490    0.0000 F   0  0  0  0  0  0  0  0  0  0  0  0
   -1.8481   -1.2990    0.0000 O   0  0  0  0  0  0  0  0  0  0  0  0
   -2.5981   -2.5981    0.0000 C   0  0  0  0  0  0  0  0  0  0  0  0
   -1.8481   -3.8971    0.0000 C   0  0  0  0  0  0  0  0  0  0  0  0
   -3.1471   -4.6471    0.0000 F   0  0  0  0  0  0  0  0  0  0  0  0
   -0.5490   -3.1471    0.0000 F   0  0  0  0  0  0  0  0  0  0  0  0
   -1.0981   -5.1962    0.0000 C   0  0  0  0  0  0  0  0  0  0  0  0
    0.2010   -4.4462    0.0000 F   0  0  0  0  0  0  0  0  0  0  0  0
   -2.3971   -5.9462    0.0000 F   0  0  0  0  0  0  0  0  0  0  0  0
   -0.3481   -6.4952    0.0000 C   0  0  0  0  0  0  0  0  0  0  0  0
    0.4019   -7.7942    0.0000 F   0  0  0  0  0  0  0  0  0  0  0  0
   -1.6471   -7.2452    0.0000 F   0  0  0  0  0  0  0  0  0  0  0  0
    0.9510   -5.7452    0.0000 F   0  0  0  0  0  0  0  0  0  0  0  0
  1  2  2  0
  2  3  1  0
  2  4  1  0
  4  5  1  0
  5  6  1  0
  6  7  1  0
  6  8  1  0
  6  9  1  0
  9 10  1  0
  9 11  1  0
  9 12  1  0
 12 13  1  0
 12 14  1  0
 12 15  1  0
  2 16  1  0
 16 17  1  0
 17 18  1  0
 18 19  1  0
 18 20  1  0
 18 21  1  0
 21 22  1  0
 21 23  1  0
 21 24  1  0
 24 25  1  0
 24 26  1  0
 24 27  1  0
M  END
$$$$

     RDKit          2D

 21 21  0  0  0  0  0  0  0  0999 V2000
    3.0000   -2.5981    0.0000 N   0  0  0  0  0  0  0  0  0  0  0  0
    3.7500   -1.2990    0.0000 C   0  0  0  0  0  0  0  0  0  0  0  0
    3.0000    0.0000    0.0000 C   0  0  0  0  0  0  0  0  0  0  0  0
    1.5000    0.0000    0.0000 C   0  0  0  0  0  0  0  0  0  0  0  0
    0.7500   -1.2990    0.0000 C   0  0  0  0  0  0  0  0  0  0  0  0
   -0.7500   -1.2990    0.0000 C   0  0  0  0  0  0  0  0  0  0  0  0
   -1.5000    0.0000    0.0000 C   0  0  0  0  0  0  0  0  0  0  0  0
   -0.7500    1.2990    0.0000 C   0  0  0  0  0  0  0  0  0  0  0  0
    0.7500    1.2990    0.0000 C   0  0  0  0  0  0  0  0  0  0  0  0
    5.2500   -1.2990    0.0000 C   0  0  0  0  0  0  0  0  0  0  0  0
    6.0000    0.0000    0.0000 O   0  0  0  0  0  0  0  0  0  0  0  0
    6.0000   -2.5981    0.0000 C   0  0  0  0  0  0  0  0  0  0  0  0
    7.2990   -1.8481    0.0000 F   0  0  0  0  0  0  0  0  0  0  0  0
    4.7010   -3.3481    0.0000 F   0  0  0  0  0  0  0  0  0  0  0  0
    6.7500   -3.8971    0.0000 C   0  0  0  0  0  0  0  0  0  0  0  0
    5.4510   -4.6471    0.0000 F   0  0  0  0  0  0  0  0  0  0  0  0
    8.0490   -3.1471    0.0000 F   0  0  0  0  0  0  0  0  0  0  0  0
    7.5000   -5.1962    0.0000 C   0  0  0  0  0  0  0  0  0  0  0  0
    8.2500   -6.4952    0.0000 F   0  0  0  0  0  0  0  0  0  0  0  0
    8.7990   -4.4462    0.0000 F   0  0  0  0  0  0  0  0  0  0  0  0
    6.2010   -5.9462    0.0000 F   0  0  0  0  0  0  0  0  0  0  0  0
  1  2  1  0
  2  3  1  0
  3  4  1  0
  4  5  2  0
  5  6  1  0
  6  7  2  0
  7  8  1  0
  8  9  2  0
  2 10  1  0
 10 11  1  0
 10 12  1  0
 12 13  1  0
 12 14  1  0
 12 15  1  0
 15 16  1  0
 15 17  1  0
 15 18  1  0
 18 19  1  0
 18 20  1  0
 18 21  1  0
  9  4  1  0
M  END
$$$$

     RDKit          2D

 23 23  0  0  0  0  0  0  0  0999 V2000
    5.8361    0.0817    0.0000 O   0  0  0  0  0  0  0  0  0  0  0  0
    5.2500   -1.2990    0.0000 S   0  0  0  0  0  4  0  0  0  0  0  0
    3.7500   -1.2990    0.0000 N   0  0  0  0  0  0  0  0  0  0  0  0
    3.0000   -0.0000    0.0000 C   0  0  0  0  0  0  0  0  0  0  0  0
    1.5000   -0.0000    0.0000 C   0  0  0  0  0  0  0  0  0  0  0  0
    0.7500   -1.2990    0.0000 C   0  0  0  0  0  0  0  0  0  0  0  0
   -0.7500   -1.2990    0.0000 C   0  0  0  0  0  0  0  0  0  0  0  0
   -1.5000   -0.0000    0.0000 C   0  0  0  0  0  0  0  0  0  0  0  0
   -0.7500    1.2990    0.0000 C   0  0  0  0  0  0  0  0  0  0  0  0
    0.7500    1.2990    0.0000 C   0  0  0  0  0  0  0  0  0  0  0  0
    6.0000   -2.5981    0.0000 C   0  0  0  0  0  0  0  0  0  0  0  0
    4.7010   -3.3481    0.0000 F   0  0  0  0  0  0  0  0  0  0  0  0
    6.7500   -3.8971    0.0000 F   0  0  0  0  0  0  0  0  0  0  0  0
    7.2990   -1.8481    0.0000 C   0  0  0  0  0  0  0  0  0  0  0  0
    6.7130   -0.4673    0.0000 F   0  0  0  0  0  0  0  0  0  0  0  0
    8.0490   -3.1471    0.0000 F   0  0  0  0  0  0  0  0  0  0  0  0
    8.5981   -1.0981    0.0000 C   0  0  0  0  0  0  0  0  0  0  0  0
    9.3481   -2.3971    0.0000 F   0  0  0  0  0  0  0  0  0  0  0  0
    7.8481    0.2010    0.0000 F   0  0  0  0  0  0  0  0  0  0  0  0
    9.8971   -0.3481    0.0000 C   0  0  0  0  0  0  0  0  0  0  0  0
   11.1962    0.4019    0.0000 F   0  0  0  0  0  0  0  0  0  0  0  0
    9.1471    0.9510    0.0000 F   0  0  0  0  0  0  0  0  0  0  0  0
   10.6471   -1.6471    0.0000 F   0  0  0  0  0  0  0  0  0  0  0  0
  1  2  2  0
  2  3  1  0
  3  4  2  0
  4  5  1  0
  5  6  2  0
  6  7  1  0
  7  8  2  0
  8  9  1  0
  9 10  2  0
  2 11  1  1
 11 12  1  0
 11 13  1  0
 11 14  1  0
 14 15  1  0
 14 16  1  0
 14 17  1  0
 17 18  1  0
 17 19  1  0
 17 20  1  0
 20 21  1  0
 20 22  1  0
 20 23  1  0
 10  5  1  0
M  END
$$$$

     RDKit          2D

 32 31  0  0  0  0  0  0  0  0999 V2000
   -2.5981   -1.5000    0.0000 O   0  0  0  0  0  0  0  0  0  0  0  0
   -2.5981    0.0000    0.0000 C   0  0  0  0  0  0  0  0  0  0  0  0
   -1.2990    0.7500    0.0000 N   0  0  0  0  0  0  0  0  0  0  0  0
    0.0000    0.0000    0.0000 C   0  0  0  0  0  0  0  0  0  0  0  0
    1.2990    0.7500    0.0000 C   0  0  0  0  0  0  0  0  0  0  0  0
    2.5981   -0.0000    0.0000 C   0  0  0  0  0  0  0  0  0  0  0  0
    3.8971    0.7500    0.0000 C   0  0  0  0  0  0  0  0  0  0  0  0
    5.1962   -0.0000    0.0000 C   0  0  0  0  0  0  0  0  0  0  0  0
    6.4952    0.7500    0.0000 C   0  0  0  0  0  0  0  0  0  0  0  0
    7.7942   -0.0000    0.0000 N   0  0  0  0  0  0  0  0  0  0  0  0
    9.0933    0.7500    0.0000 C   0  0  0  0  0  0  0  0  0  0  0  0
    9.0933    2.2500    0.0000 O   0  0  0  0  0  0  0  0  0  0  0  0
   10.3923   -0.0000    0.0000 C   0  0  0  0  0  0  0  0  0  0  0  0
   11.1423    1.2990    0.0000 F   0  0  0  0  0  0  0  0  0  0  0  0
    9.6423   -1.2990    0.0000 F   0  0  0  0  0  0  0  0  0  0  0  0
   11.6913   -0.7500    0.0000 C   0  0  0  0  0  0  0  0  0  0  0  0
   10.9413   -2.0490    0.0000 F   0  0  0  0  0  0  0  0  0  0  0  0
   12.4413    0.5490    0.0000 F   0  0  0  0  0  0  0  0  0  0  0  0
   12.9904   -1.5000    0.0000 C   0  0  0  0  0  0  0  0  0  0  0  0
   14.2894   -2.2500    0.0000 F   0  0  0  0  0  0  0  0  0  0  0  0
   13.7404   -0.2010    0.0000 F   0  0  0  0  0  0  0  0  0  0  0  0
   12.2404   -2.7990    0.0000 F   0  0  0  0  0  0  0  0  0  0  0  0
   -3.8971    0.7500    0.0000 C   0  0  0  0  0  0  0  0  0  0  0  0
   -4.6471   -0.5490    0.0000 F   0  0  0  0  0  0  0  0  0  0  0  0
   -3.1471    2.0490    0.0000 F   0  0  0  0  0  0  0  0  0  0  0  0
   -5.1962    1.5000    0.0000 C   0  0  0  0  0  0  0  0  0  0  0  0
   -4.4462    2.7990    0.0000 F   0  0  0  0  0  0  0  0  0  0  0  0
   -5.9462    0.2010    0.0000 F   0  0  0  0  0  0  0  0  0  0  0  0
   -6.4952    2.2500    0.0000 C   0  0  0  0  0  0  0  0  0  0  0  0
   -7.7942    3.0000    0.0000 F   0  0  0  0  0  0  0  0  0  0  0  0
   -7.2452    0.9510    0.0000 F   0  0  0  0  0  0  0  0  0  0  0  0
   -5.7452    3.5490    0.0000 F   0  0  0  0  0  0  0  0  0  0  0  0
  1  2  2  0
  2  3  1  0
  3  4  1  0
  4  5  1  0
  5  6  1  0
  6  7  1  0
  7  8  1  0
  8  9  1  0
  9 10  1  0
 10 11  1  0
 11 12  2  0
 11 13  1  0
 13 14  1  0
 13 15  1  0
 13 16  1  0
 16 17  1  0
 16 18  1  0
 16 19  1  0
 19 20  1  0
 19 21  1  0
 19 22  1  0
  2 23  1  0
 23 24  1  0
 23 25  1  0
 23 26  1  0
 26 27  1  0
 26 28  1  0
 26 29  1  0
 29 30  1  0
 29 31  1  0
 29 32  1  0
M  END
$$$$

     RDKit          2D

 20 18  0  0  0  0  0  0  0  0999 V2000
    0.0000    0.0000    0.0000 C   0  0  0  0  0  0  0  0  0  0  0  0
    1.2990    0.7500    0.0000 C   0  0  0  0  0  0  0  0  0  0  0  0
    2.5981    1.5000    0.0000 C   0  0  0  0  0  0  0  0  0  0  0  0
    2.0490   -0.5490    0.0000 C   0  0  0  0  0  0  0  0  0  0  0  0
    0.5490    2.0490    0.0000 C   0  0  0  0  0  0  0  0  0  0  0  0
   -0.9510    2.0490    0.0000 O   0  0  0  0  0  0  0  0  0  0  0  0
    1.2990    3.3481    0.0000 C   0  0  0  0  0  0  0  0  0  0  0  0
    0.5490    4.6471    0.0000 C   0  0  0  0  0  0  0  0  0  0  0  0
   -0.9510    4.6471    0.0000 O   0  0  0  0  0  0  0  0  0  0  0  0
    1.2990    5.9462    0.0000 C   0  0  0  0  0  0  0  0  0  0  0  0
    0.0000    6.6962    0.0000 F   0  0  0  0  0  0  0  0  0  0  0  0
    2.5981    5.1962    0.0000 F   0  0  0  0  0  0  0  0  0  0  0  0
    2.0490    7.2452    0.0000 C   0  0  0  0  0  0  0  0  0  0  0  0
    3.3481    6.4952    0.0000 F   0  0  0  0  0  0  0  0  0  0  0  0
    0.7500    7.9952    0.0000 F   0  0  0  0  0  0  0  0  0  0  0  0
    2.7990    8.5442    0.0000 C   0  0  0  0  0  0  0  0  0  0  0  0
    3.5490    9.8433    0.0000 F   0  0  0  0  0  0  0  0  0  0  0  0
    1.5000    9.2942    0.0000 F   0  0  0  0  0  0  0  0  0  0  0  0
    4.0981    7.7942    0.0000 F   0  0  0  0  0  0  0  0  0  0  0  0
    5.0981    0.0000    0.0000 Ag  0  0  0  0  0 15  0  0  0  0  0  0
  1  2  1  0
  2  3  1  0
  2  4  1  0
  2  5  1  0
  5  6  2  0
  5  7  1  0
  7  8  1  0
  8  9  2  0
  8 10  1  0
 10 11  1  0
 10 12  1  0
 10 13  1  0
 13 14  1  0
 13 15  1  0
 13 16  1  0
 16 17  1  0
 16 18  1  0
 16 19  1  0
M  CHG  2   7  -1  20   1
M  END
$$$$

     RDKit          2D

 85 81  0  0  0  0  0  0  0  0999 V2000
   -3.1291    0.3089    0.0000 H   0  0  0  0  0  0  0  0  0  0  0  0
   -2.2500    0.2010    0.0000 C   0  0  0  0  0  0  0  0  0  0  0  0
   -0.7946    0.5639    0.0000 H   0  0  0  0  0  0  0  0  0  0  0  0
   -2.2500    1.7010    0.0000 H   0  0  0  0  0  0  0  0  0  0  0  0
   -2.2500   -1.2990    0.0000 C   0  0  0  0  0  0  0  0  0  0  0  0
   -0.7500   -1.2990    0.0000 C   0  0  0  0  0  0  0  0  0  0  0  0
    0.1528   -2.4970    0.0000 O   0  0  0  0  0  0  0  0  0  0  0  0
    0.0000    0.0000    0.0000 C   0  0  0  0  0  0  0  0  0  0  0  0
    1.5000    0.0000    0.0000 C   0  0  0  0  0  0  0  0  0  0  0  0
    2.2500   -1.2990    0.0000 O   0  0  0  0  0  0  0  0  0  0  0  0
    2.2500    1.2990    0.0000 C   0  0  0  0  0  0  0  0  0  0  0  0
    3.5490    0.5490    0.0000 F   0  0  0  0  0  0  0  0  0  0  0  0
    0.9510    2.0490    0.0000 F   0  0  0  0  0  0  0  0  0  0  0  0
    3.0000    2.5981    0.0000 C   0  0  0  0  0  0  0  0  0  0  0  0
    1.7010    3.3481    0.0000 F   0  0  0  0  0  0  0  0  0  0  0  0
    4.2990    1.8481    0.0000 F   0  0  0  0  0  0  0  0  0  0  0  0
    3.7500    3.8971    0.0000 C   0  0  0  0  0  0  0  0  0  0  0  0
    4.5000    5.1962    0.0000 F   0  0  0  0  0  0  0  0  0  0  0  0
    5.0490    3.1471    0.0000 F   0  0  0  0  0  0  0  0  0  0  0  0
    2.4510    4.6471    0.0000 F   0  0  0  0  0  0  0  0  0  0  0  0
   -2.2500   -2.7990    0.0000 C   0  0  0  0  0  0  0  0  0  0  0  0
   -3.1291   -2.9070    0.0000 H   0  0  0  0  0  0  0  0  0  0  0  0
   -0.7612   -2.9819    0.0000 H   0  0  0  0  0  0  0  0  0  0  0  0
   -2.2500   -4.2990    0.0000 H   0  0  0  0  0  0  0  0  0  0  0  0
   -3.7500   -1.2990    0.0000 C   0  0  0  0  0  0  0  0  0  0  0  0
   -3.8580   -2.1782    0.0000 H   0  0  0  0  0  0  0  0  0  0  0  0
   -3.8580   -0.4199    0.0000 H   0  0  0  0  0  0  0  0  0  0  0  0
   -5.2500   -1.2990    0.0000 H   0  0  0  0  0  0  0  0  0  0  0  0
   -3.1291   10.8041    0.0000 H   0  0  0  0  0  0  0  0  0  0  0  0
   -2.2500   10.6962    0.0000 C   0  0  0  0  0  0  0  0  0  0  0  0
   -0.7946   11.0591    0.0000 H   0  0  0  0  0  0  0  0  0  0  0  0
   -2.2500   12.1962    0.0000 H   0  0  0  0  0  0  0  0  0  0  0  0
   -2.2500    9.1962    0.0000 C   0  0  0  0  0  0  0  0  0  0  0  0
   -0.7500    9.1962    0.0000 C   0  0  0  0  0  0  0  0  0  0  0  0
    0.1528    7.9982    0.0000 O   0  0  0  0  0  0  0  0  0  0  0  0
    0.0000   10.4952    0.0000 C   0  0  0  0  0  0  0  0  0  0  0  0
    1.5000   10.4952    0.0000 C   0  0  0  0  0  0  0  0  0  0  0  0
    2.2500    9.1962    0.0000 O   0  0  0  0  0  0  0  0  0  0  0  0
    2.2500   11.7942    0.0000 C   0  0  0  0  0  0  0  0  0  0  0  0
    3.5490   11.0442    0.0000 F   0  0  0  0  0  0  0  0  0  0  0  0
    0.9510   12.5442    0.0000 F   0  0  0  0  0  0  0  0  0  0  0  0
    3.0000   13.0933    0.0000 C   0  0  0  0  0  0  0  0  0  0  0  0
    1.7010   13.8433    0.0000 F   0  0  0  0  0  0  0  0  0  0  0  0
    4.2990   12.3433    0.0000 F   0  0  0  0  0  0  0  0  0  0  0  0
    3.7500   14.3923    0.0000 C   0  0  0  0  0  0  0  0  0  0  0  0
    4.5000   15.6913    0.0000 F   0  0  0  0  0  0  0  0  0  0  0  0
    5.0490   13.6423    0.0000 F   0  0  0  0  0  0  0  0  0  0  0  0
    2.4510   15.1423    0.0000 F   0  0  0  0  0  0  0  0  0  0  0  0
   -2.2500    7.6962    0.0000 C   0  0  0  0  0  0  0  0  0  0  0  0
   -3.1291    7.5882    0.0000 H   0  0  0  0  0  0  0  0  0  0  0  0
   -0.7612    7.5133    0.0000 H   0  0  0  0  0  0  0  0  0  0  0  0
   -2.2500    6.1962    0.0000 H   0  0  0  0  0  0  0  0  0  0  0  0
   -3.7500    9.1962    0.0000 C   0  0  0  0  0  0  0  0  0  0  0  0
   -3.8580    8.3170    0.0000 H   0  0  0  0  0  0  0  0  0  0  0  0
   -3.8580   10.0753    0.0000 H   0  0  0  0  0  0  0  0  0  0  0  0
   -5.2500    9.1962    0.0000 H   0  0  0  0  0  0  0  0  0  0  0  0
    8.1699    0.3089    0.0000 H   0  0  0  0  0  0  0  0  0  0  0  0
    9.0490    0.2010    0.0000 C   0  0  0  0  0  0  0  0  0  0  0  0
   10.5045    0.5639    0.0000 H   0  0  0  0  0  0  0  0  0  0  0  0
    9.0490    1.7010    0.0000 H   0  0  0  0  0  0  0  0  0  0  0  0
    9.0490   -1.2990    0.0000 C   0  0  0  0  0  0  0  0  0  0  0  0
   10.5490   -1.2990    0.0000 C   0  0  0  0  0  0  0  0  0  0  0  0
   11.4518   -2.4970    0.0000 O   0  0  0  0  0  0  0  0  0  0  0  0
   11.2990    0.0000    0.0000 C   0  0  0  0  0  0  0  0  0  0  0  0
   12.7990    0.0000    0.0000 C   0  0  0  0  0  0  0  0  0  0  0  0
   13.5490   -1.2990    0.0000 O   0  0  0  0  0  0  0  0  0  0  0  0
   13.5490    1.2990    0.0000 C   0  0  0  0  0  0  0  0  0  0  0  0
   14.8481    0.5490    0.0000 F   0  0  0  0  0  0  0  0  0  0  0  0
   12.2500    2.0490    0.0000 F   0  0  0  0  0  0  0  0  0  0  0  0
   14.2990    2.5981    0.0000 C   0  0  0  0  0  0  0  0  0  0  0  0
   13.0000    3.3481    0.0000 F   0  0  0  0  0  0  0  0  0  0  0  0
   15.5981    1.8481    0.0000 F   0  0  0  0  0  0  0  0  0  0  0  0
   15.0490    3.8971    0.0000 C   0  0  0  0  0  0  0  0  0  0  0  0
   15.7990    5.1962    0.0000 F   0  0  0  0  0  0  0  0  0  0  0  0
   16.3481    3.1471    0.0000 F   0  0  0  0  0  0  0  0  0  0  0  0
   13.7500    4.6471    0.0000 F   0  0  0  0  0  0  0  0  0  0  0  0
    9.0490   -2.7990    0.0000 C   0  0  0  0  0  0  0  0  0  0  0  0
    8.1699   -2.9070    0.0000 H   0  0  0  0  0  0  0  0  0  0  0  0
   10.5379   -2.9819    0.0000 H   0  0  0  0  0  0  0  0  0  0  0  0
    9.0490   -4.2990    0.0000 H   0  0  0  0  0  0  0  0  0  0  0  0
    7.5490   -1.2990    0.0000 C   0  0  0  0  0  0  0  0  0  0  0  0
    7.4411   -2.1782    0.0000 H   0  0  0  0  0  0  0  0  0  0  0  0
    7.4411   -0.4199    0.0000 H   0  0  0  0  0  0  0  0  0  0  0  0
    6.0490   -1.2990    0.0000 H   0  0  0  0  0  0  0  0  0  0  0  0
    0.0000   16.6913    0.0000 Pr  0  0  0  0  0 15  0  0  0  0  0  0
  1  2  1  0
  2  3  1  0
  2  4  1  0
  2  5  1  0
  5  6  1  0
  6  7  2  0
  6  8  1  0
  8  9  2  0
  9 10  1  0
  9 11  1  0
 11 12  1  0
 11 13  1  0
 11 14  1  0
 14 15  1  0
 14 16  1  0
 14 17  1  0
 17 18  1  0
 17 19  1  0
 17 20  1  0
  5 21  1  0
 21 22  1  0
 21 23  1  0
 21 24  1  0
  5 25  1  0
 25 26  1  0
 25 27  1  0
 25 28  1  0
 29 30  1  0
 30 31  1  0
 30 32  1  0
 30 33  1  0
 33 34  1  0
 34 35  2  0
 34 36  1  0
 36 37  2  0
 37 38  1  0
 37 39  1  0
 39 40  1  0
 39 41  1  0
 39 42  1  0
 42 43  1  0
 42 44  1  0
 42 45  1  0
 45 46  1  0
 45 47  1  0
 45 48  1  0
 33 49  1  0
 49 50  1  0
 49 51  1  0
 49 52  1  0
 33 53  1  0
 53 54  1  0
 53 55  1  0
 53 56  1  0
 57 58  1  0
 58 59  1  0
 58 60  1  0
 58 61  1  0
 61 62  1  0
 62 63  2  0
 62 64  1  0
 64 65  2  0
 65 66  1  0
 65 67  1  0
 67 68  1  0
 67 69  1  0
 67 70  1  0
 70 71  1  0
 70 72  1  0
 70 73  1  0
 73 74  1  0
 73 75  1  0
 73 76  1  0
 61 77  1  0
 77 78  1  0
 77 79  1  0
 77 80  1  0
 61 81  1  0
 81 82  1  0
 81 83  1  0
 81 84  1  0
M  ISO  8   1   2   3   2   4   2  22   2  23   2  24   2  26   2  27   2
M  ISO  8  28   2  29   2  31   2  32   2  50   2  51   2  52   2  54   2
M  ISO  8  55   2  56   2  57   2  59   2  60   2  78   2  79   2  80   2
M  CHG  4  10  -1  38  -1  66  -1  85   3
M  ISO  3  82   2  83   2  84   2
M  END
$$$$

     RDKit          2D

 70 72  0  0  0  0  0  0  0  0999 V2000
    0.8578    2.6401    0.0000 C   0  0  0  0  0  0  0  0  0  0  0  0
    0.3943    1.2135    0.0000 C   0  0  0  0  0  0  0  0  0  0  0  0
    1.2760    0.0000    0.0000 C   0  0  0  0  0  0  0  0  0  0  0  0
    0.3943   -1.2135    0.0000 C   0  0  0  0  0  0  0  0  0  0  0  0
   -1.0323   -0.7500    0.0000 C   0  0  0  0  0  0  0  0  0  0  0  0
   -1.9140    0.4635    0.0000 C   0  0  0  0  0  0  0  0  0  0  0  0
   -3.4140    0.4635    0.0000 C   0  0  0  0  0  0  0  0  0  0  0  0
   -4.1640   -0.8355    0.0000 O   0  0  0  0  0  0  0  0  0  0  0  0
   -4.1640    1.7626    0.0000 C   0  0  0  0  0  0  0  0  0  0  0  0
   -5.4630    1.0126    0.0000 F   0  0  0  0  0  0  0  0  0  0  0  0
   -2.8649    2.5126    0.0000 F   0  0  0  0  0  0  0  0  0  0  0  0
   -4.9140    3.0616    0.0000 C   0  0  0  0  0  0  0  0  0  0  0  0
   -3.6149    3.8116    0.0000 F   0  0  0  0  0  0  0  0  0  0  0  0
   -6.2130    2.3116    0.0000 F   0  0  0  0  0  0  0  0  0  0  0  0
   -5.6640    4.3606    0.0000 C   0  0  0  0  0  0  0  0  0  0  0  0
   -6.4140    5.6597    0.0000 F   0  0  0  0  0  0  0  0  0  0  0  0
   -6.9630    3.6106    0.0000 F   0  0  0  0  0  0  0  0  0  0  0  0
   -4.3649    5.1106    0.0000 F   0  0  0  0  0  0  0  0  0  0  0  0
   -1.0323    1.6771    0.0000 C   0  0  0  0  0  0  0  0  0  0  0  0
   -1.4958    3.1036    0.0000 O   0  0  0  0  0  0  0  0  0  0  0  0
   -1.0323    0.7500    0.0000 C   0  0  0  0  0  0  0  0  0  0  0  0
   -2.5177    0.9588    0.0000 C   0  0  0  0  0  0  0  0  0  0  0  0
   -1.6899    2.0982    0.0000 C   0  0  0  0  0  0  0  0  0  0  0  0
    0.8578   10.5133    0.0000 C   0  0  0  0  0  0  0  0  0  0  0  0
    0.3943    9.0867    0.0000 C   0  0  0  0  0  0  0  0  0  0  0  0
    1.2760    7.8732    0.0000 C   0  0  0  0  0  0  0  0  0  0  0  0
    0.3943    6.6597    0.0000 C   0  0  0  0  0  0  0  0  0  0  0  0
   -1.0323    7.1232    0.0000 C   0  0  0  0  0  0  0  0  0  0  0  0
   -1.9140    8.3367    0.0000 C   0  0  0  0  0  0  0  0  0  0  0  0
   -3.4140    8.3367    0.0000 C   0  0  0  0  0  0  0  0  0  0  0  0
   -4.1640    7.0377    0.0000 O   0  0  0  0  0  0  0  0  0  0  0  0
   -4.1640    9.6358    0.0000 C   0  0  0  0  0  0  0  0  0  0  0  0
   -5.4630    8.8858    0.0000 F   0  0  0  0  0  0  0  0  0  0  0  0
   -2.8649   10.3858    0.0000 F   0  0  0  0  0  0  0  0  0  0  0  0
   -4.9140   10.9348    0.0000 C   0  0  0  0  0  0  0  0  0  0  0  0
   -3.6149   11.6848    0.0000 F   0  0  0  0  0  0  0  0  0  0  0  0
   -6.2130   10.1848    0.0000 F   0  0  0  0  0  0  0  0  0  0  0  0
   -5.6640   12.2338    0.0000 C   0  0  0  0  0  0  0  0  0  0  0  0
   -6.4140   13.5329    0.0000 F   0  0  0  0  0  0  0  0  0  0  0  0
   -6.9630   11.4838    0.0000 F   0  0  0  0  0  0  0  0  0  0  0  0
   -4.3649   12.9838    0.0000 F   0  0  0  0  0  0  0  0  0  0  0  0
   -1.0323    9.5503    0.0000 C   0  0  0  0  0  0  0  0  0  0  0  0
   -1.4958   10.9768    0.0000 O   0  0  0  0  0  0  0  0  0  0  0  0
   -1.0323    8.6232    0.0000 C   0  0  0  0  0  0  0  0  0  0  0  0
   -2.5177    8.8320    0.0000 C   0  0  0  0  0  0  0  0  0  0  0  0
   -1.6899    9.9714    0.0000 C   0  0  0  0  0  0  0  0  0  0  0  0
   10.0968    2.6401    0.0000 C   0  0  0  0  0  0  0  0  0  0  0  0
    9.6333    1.2135    0.0000 C   0  0  0  0  0  0  0  0  0  0  0  0
   10.5150    0.0000    0.0000 C   0  0  0  0  0  0  0  0  0  0  0  0
    9.6333   -1.2135    0.0000 C   0  0  0  0  0  0  0  0  0  0  0  0
    8.2067   -0.7500    0.0000 C   0  0  0  0  0  0  0  0  0  0  0  0
    7.3250    0.4635    0.0000 C   0  0  0  0  0  0  0  0  0  0  0  0
    5.8250    0.4635    0.0000 C   0  0  0  0  0  0  0  0  0  0  0  0
    5.0750   -0.8355    0.0000 O   0  0  0  0  0  0  0  0  0  0  0  0
    5.0750    1.7626    0.0000 C   0  0  0  0  0  0  0  0  0  0  0  0
    3.7760    1.0126    0.0000 F   0  0  0  0  0  0  0  0  0  0  0  0
    6.3741    2.5126    0.0000 F   0  0  0  0  0  0  0  0  0  0  0  0
    4.3250    3.0616    0.0000 C   0  0  0  0  0  0  0  0  0  0  0  0
    5.6241    3.8116    0.0000 F   0  0  0  0  0  0  0  0  0  0  0  0
    3.0260    2.3116    0.0000 F   0  0  0  0  0  0  0  0  0  0  0  0
    3.5750    4.3606    0.0000 C   0  0  0  0  0  0  0  0  0  0  0  0
    2.8250    5.6597    0.0000 F   0  0  0  0  0  0  0  0  0  0  0  0
    2.2760    3.6106    0.0000 F   0  0  0  0  0  0  0  0  0  0  0  0
    4.8741    5.1106    0.0000 F   0  0  0  0  0  0  0  0  0  0  0  0
    8.2067    1.6771    0.0000 C   0  0  0  0  0  0  0  0  0  0  0  0
    7.7432    3.1036    0.0000 O   0  0  0  0  0  0  0  0  0  0  0  0
    8.2067    0.7500    0.0000 C   0  0  0  0  0  0  0  0  0  0  0  0
    6.7213    0.9588    0.0000 C   0  0  0  0  0  0  0  0  0  0  0  0
    7.5491    2.0982    0.0000 C   0  0  0  0  0  0  0  0  0  0  0  0
    0.0000   14.5329    0.0000 Eu  0  0  0  0  0 15  0  0  0  0  0  0
  1  2  1  0
  2  3  1  0
  3  4  1  0
  4  5  1  0
  5  6  1  0
  6  7  1  0
  7  8  2  0
  7  9  1  0
  9 10  1  0
  9 11  1  0
  9 12  1  0
 12 13  1  0
 12 14  1  0
 12 15  1  0
 15 16  1  0
 15 17  1  0
 15 18  1  0
  6 19  1  0
 19 20  2  0
  5 21  1  0
 21 22  1  0
 21 23  1  0
 24 25  1  0
 25 26  1  0
 26 27  1  0
 27 28  1  0
 28 29  1  0
 29 30  1  0
 30 31  2  0
 30 32  1  0
 32 33  1  0
 32 34  1  0
 32 35  1  0
 35 36  1  0
 35 37  1  0
 35 38  1  0
 38 39  1  0
 38 40  1  0
 38 41  1  0
 29 42  1  0
 42 43  2  0
 28 44  1  0
 44 45  1  0
 44 46  1  0
 47 48  1  0
 48 49  1  0
 49 50  1  0
 50 51  1  0
 51 52  1  0
 52 53  1  0
 53 54  2  0
 53 55  1  0
 55 56  1  0
 55 57  1  0
 55 58  1  0
 58 59  1  0
 58 60  1  0
 58 61  1  0
 61 62  1  0
 61 63  1  0
 61 64  1  0
 52 65  1  0
 65 66  2  0
 51 67  1  0
 67 68  1  0
 67 69  1  0
 19  2  1  0
 42 25  1  0
 65 48  1  0
 21  2  1  0
 44 25  1  0
 67 48  1  0
M  CHG  4   6  -1  29  -1  52  -1  70   3
M  END
$$$$

     RDKit          2D

 26 26  0  0  0  0  0  0  0  0999 V2000
    6.0000   -2.5981    0.0000 C   0  0  0  0  0  0  0  0  0  0  0  0
    5.2500   -1.2990    0.0000 O   0  0  0  0  0  0  0  0  0  0  0  0
    3.7500   -1.2990    0.0000 C   0  0  0  0  0  0  0  0  0  0  0  0
    3.0000   -2.5981    0.0000 O   0  0  0  0  0  0  0  0  0  0  0  0
    3.0000    0.0000    0.0000 N   0  0  0  0  0  0  0  0  0  0  0  0
    1.5000    0.0000    0.0000 C   0  0  0  0  0  0  0  0  0  0  0  0
    0.7500   -1.2990    0.0000 C   0  0  0  0  0  0  0  0  0  0  0  0
   -0.7500   -1.2990    0.0000 C   0  0  0  0  0  0  0  0  0  0  0  0
   -1.5000    0.0000    0.0000 C   0  0  0  0  0  0  0  0  0  0  0  0
   -3.0000    0.0000    0.0000 N   0  0  0  0  0  0  0  0  0  0  0  0
   -3.7500   -1.2990    0.0000 C   0  0  0  0  0  0  0  0  0  0  0  0
   -3.0000   -2.5981    0.0000 O   0  0  0  0  0  0  0  0  0  0  0  0
   -5.2500   -1.2990    0.0000 O   0  0  0  0  0  0  0  0  0  0  0  0
   -6.0000   -2.5981    0.0000 C   0  0  0  0  0  0  0  0  0  0  0  0
   -0.7500    1.2990    0.0000 C   0  0  0  0  0  0  0  0  0  0  0  0
   -1.5000    2.5981    0.0000 C   0  0  0  0  0  0  0  0  0  0  0  0
   -0.2010    3.3481    0.0000 F   0  0  0  0  0  0  0  0  0  0  0  0
   -2.7990    1.8481    0.0000 F   0  0  0  0  0  0  0  0  0  0  0  0
   -2.2500    3.8971    0.0000 C   0  0  0  0  0  0  0  0  0  0  0  0
   -3.5490    3.1471    0.0000 F   0  0  0  0  0  0  0  0  0  0  0  0
   -0.9510    4.6471    0.0000 F   0  0  0  0  0  0  0  0  0  0  0  0
   -3.0000    5.1962    0.0000 C   0  0  0  0  0  0  0  0  0  0  0  0
   -3.7500    6.4952    0.0000 F   0  0  0  0  0  0  0  0  0  0  0  0
   -1.7010    5.9462    0.0000 F   0  0  0  0  0  0  0  0  0  0  0  0
   -4.2990    4.4462    0.0000 F   0  0  0  0  0  0  0  0  0  0  0  0
    0.7500    1.2990    0.0000 C   0  0  0  0  0  0  0  0  0  0  0  0
  1  2  1  0
  2  3  1  0
  3  4  2  0
  3  5  1  0
  5  6  1  0
  6  7  2  0
  7  8  1  0
  8  9  2  0
  9 10  1  0
 10 11  1  0
 11 12  2  0
 11 13  1  0
 13 14  1  0
  9 15  1  0
 15 16  1  0
 16 17  1  0
 16 18  1  0
 16 19  1  0
 19 20  1  0
 19 21  1  0
 19 22  1  0
 22 23  1  0
 22 24  1  0
 22 25  1  0
 15 26  2  0
 26  6  1  0
M  END
$$$$

     RDKit          2D

191194  0  0  0  0  0  0  0  0999 V2000
   15.0000    0.0000    0.0000 F   0  0  0  0  0  0  0  0  0  0  0  0
   13.5000    0.0000    0.0000 C   0  0  0  0  0  0  0  0  0  0  0  0
   13.5000    1.5000    0.0000 F   0  0  0  0  0  0  0  0  0  0  0  0
   13.5000   -1.5000    0.0000 F   0  0  0  0  0  0  0  0  0  0  0  0
   12.0000    0.0000    0.0000 C   0  0  0  0  0  0  0  0  0  0  0  0
   12.0000   -1.5000    0.0000 F   0  0  0  0  0  0  0  0  0  0  0  0
   12.0000    1.5000    0.0000 F   0  0  0  0  0  0  0  0  0  0  0  0
   10.5000    0.0000    0.0000 C   0  0  0  0  0  0  0  0  0  0  0  0
   10.5000    1.5000    0.0000 F   0  0  0  0  0  0  0  0  0  0  0  0
   10.5000   -1.5000    0.0000 F   0  0  0  0  0  0  0  0  0  0  0  0
    9.0000    0.0000    0.0000 C   0  0  0  0  0  0  0  0  0  0  0  0
    9.0000   -1.5000    0.0000 F   0  0  0  0  0  0  0  0  0  0  0  0
    9.0000    1.5000    0.0000 F   0  0  0  0  0  0  0  0  0  0  0  0
    7.5000    0.0000    0.0000 C   0  0  0  0  0  0  0  0  0  0  0  0
    7.5000    1.5000    0.0000 F   0  0  0  0  0  0  0  0  0  0  0  0
    7.5000   -1.5000    0.0000 F   0  0  0  0  0  0  0  0  0  0  0  0
    6.0000    0.0000    0.0000 C   0  0  0  0  0  0  0  0  0  0  0  0
    6.0000   -1.5000    0.0000 F   0  0  0  0  0  0  0  0  0  0  0  0
    6.0000    1.5000    0.0000 F   0  0  0  0  0  0  0  0  0  0  0  0
    4.5000    0.0000    0.0000 C   0  0  0  0  0  0  0  0  0  0  0  0
    4.5000    1.5000    0.0000 F   0  0  0  0  0  0  0  0  0  0  0  0
    4.5000   -1.5000    0.0000 F   0  0  0  0  0  0  0  0  0  0  0  0
    3.0000    0.0000    0.0000 C   0  0  0  0  0  0  0  0  0  0  0  0
    3.0000   -1.5000    0.0000 F   0  0  0  0  0  0  0  0  0  0  0  0
    3.0000    1.5000    0.0000 F   0  0  0  0  0  0  0  0  0  0  0  0
    1.5000    0.0000    0.0000 C   0  0  0  0  0  0  0  0  0  0  0  0
    0.7500   -1.2990    0.0000 C   0  0  0  0  0  0  0  0  0  0  0  0
   -0.7500   -1.2990    0.0000 C   0  0  0  0  0  0  0  0  0  0  0  0
   -1.5000    0.0000    0.0000 C   0  0  0  0  0  0  0  0  0  0  0  0
   -3.0000    0.0000    0.0000 P   0  0  0  0  0  0  0  0  0  0  0  0
   -3.7500    1.2990    0.0000 C   0  0  0  0  0  0  0  0  0  0  0  0
   -3.0000    2.5981    0.0000 C   0  0  0  0  0  0  0  0  0  0  0  0
   -3.7500    3.8971    0.0000 C   0  0  0  0  0  0  0  0  0  0  0  0
   -5.2500    3.8971    0.0000 C   0  0  0  0  0  0  0  0  0  0  0  0
   -6.0000    5.1962    0.0000 C   0  0  0  0  0  0  0  0  0  0  0  0
   -4.7010    5.9462    0.0000 F   0  0  0  0  0  0  0  0  0  0  0  0
   -7.2990    4.4462    0.0000 F   0  0  0  0  0  0  0  0  0  0  0  0
   -6.7500    6.4952    0.0000 C   0  0  0  0  0  0  0  0  0  0  0  0
   -8.0490    5.7452    0.0000 F   0  0  0  0  0  0  0  0  0  0  0  0
   -5.4510    7.2452    0.0000 F   0  0  0  0  0  0  0  0  0  0  0  0
   -7.5000    7.7942    0.0000 C   0  0  0  0  0  0  0  0  0  0  0  0
   -6.2010    8.5442    0.0000 F   0  0  0  0  0  0  0  0  0  0  0  0
   -8.7990    7.0442    0.0000 F   0  0  0  0  0  0  0  0  0  0  0  0
   -8.2500    9.0933    0.0000 C   0  0  0  0  0  0  0  0  0  0  0  0
   -9.5490    8.3433    0.0000 F   0  0  0  0  0  0  0  0  0  0  0  0
   -6.9510    9.8433    0.0000 F   0  0  0  0  0  0  0  0  0  0  0  0
   -9.0000   10.3923    0.0000 C   0  0  0  0  0  0  0  0  0  0  0  0
   -7.7010   11.1423    0.0000 F   0  0  0  0  0  0  0  0  0  0  0  0
  -10.2990    9.6423    0.0000 F   0  0  0  0  0  0  0  0  0  0  0  0
   -9.7500   11.6913    0.0000 C   0  0  0  0  0  0  0  0  0  0  0  0
  -11.0490   10.9413    0.0000 F   0  0  0  0  0  0  0  0  0  0  0  0
   -8.4510   12.4413    0.0000 F   0  0  0  0  0  0  0  0  0  0  0  0
  -10.5000   12.9904    0.0000 C   0  0  0  0  0  0  0  0  0  0  0  0
   -9.2010   13.7404    0.0000 F   0  0  0  0  0  0  0  0  0  0  0  0
  -11.7990   12.2404    0.0000 F   0  0  0  0  0  0  0  0  0  0  0  0
  -11.2500   14.2894    0.0000 C   0  0  0  0  0  0  0  0  0  0  0  0
  -12.0000   15.5885    0.0000 F   0  0  0  0  0  0  0  0  0  0  0  0
  -12.5490   13.5394    0.0000 F   0  0  0  0  0  0  0  0  0  0  0  0
   -9.9510   15.0394    0.0000 F   0  0  0  0  0  0  0  0  0  0  0  0
   -6.0000    2.5981    0.0000 C   0  0  0  0  0  0  0  0  0  0  0  0
   -5.2500    1.2990    0.0000 C   0  0  0  0  0  0  0  0  0  0  0  0
   -3.7500   -1.2990    0.0000 C   0  0  0  0  0  0  0  0  0  0  0  0
   -5.2500   -1.2990    0.0000 C   0  0  0  0  0  0  0  0  0  0  0  0
   -6.0000   -2.5981    0.0000 C   0  0  0  0  0  0  0  0  0  0  0  0
   -5.2500   -3.8971    0.0000 C   0  0  0  0  0  0  0  0  0  0  0  0
   -6.0000   -5.1962    0.0000 C   0  0  0  0  0  0  0  0  0  0  0  0
   -7.2990   -4.4462    0.0000 F   0  0  0  0  0  0  0  0  0  0  0  0
   -4.7010   -5.9462    0.0000 F   0  0  0  0  0  0  0  0  0  0  0  0
   -6.7500   -6.4952    0.0000 C   0  0  0  0  0  0  0  0  0  0  0  0
   -5.4510   -7.2452    0.0000 F   0  0  0  0  0  0  0  0  0  0  0  0
   -8.0490   -5.7452    0.0000 F   0  0  0  0  0  0  0  0  0  0  0  0
   -7.5000   -7.7942    0.0000 C   0  0  0  0  0  0  0  0  0  0  0  0
   -8.7990   -7.0442    0.0000 F   0  0  0  0  0  0  0  0  0  0  0  0
   -6.2010   -8.5442    0.0000 F   0  0  0  0  0  0  0  0  0  0  0  0
   -8.2500   -9.0933    0.0000 C   0  0  0  0  0  0  0  0  0  0  0  0
   -6.9510   -9.8433    0.0000 F   0  0  0  0  0  0  0  0  0  0  0  0
   -9.5490   -8.3433    0.0000 F   0  0  0  0  0  0  0  0  0  0  0  0
   -9.0000  -10.3923    0.0000 C   0  0  0  0  0  0  0  0  0  0  0  0
  -10.2990   -9.6423    0.0000 F   0  0  0  0  0  0  0  0  0  0  0  0
   -7.7010  -11.1423    0.0000 F   0  0  0  0  0  0  0  0  0  0  0  0
   -9.7500  -11.6913    0.0000 C   0  0  0  0  0  0  0  0  0  0  0  0
   -8.4510  -12.4413    0.0000 F   0  0  0  0  0  0  0  0  0  0  0  0
  -11.0490  -10.9413    0.0000 F   0  0  0  0  0  0  0  0  0  0  0  0
  -10.5000  -12.9904    0.0000 C   0  0  0  0  0  0  0  0  0  0  0  0
  -11.7990  -12.2404    0.0000 F   0  0  0  0  0  0  0  0  0  0  0  0
   -9.2010  -13.7404    0.0000 F   0  0  0  0  0  0  0  0  0  0  0  0
  -11.2500  -14.2894    0.0000 C   0  0  0  0  0  0  0  0  0  0  0  0
  -12.0000  -15.5885    0.0000 F   0  0  0  0  0  0  0  0  0  0  0  0
   -9.9510  -15.0394    0.0000 F   0  0  0  0  0  0  0  0  0  0  0  0
  -12.5490  -13.5394    0.0000 F   0  0  0  0  0  0  0  0  0  0  0  0
   -3.7500   -3.8971    0.0000 C   0  0  0  0  0  0  0  0  0  0  0  0
   -3.0000   -2.5981    0.0000 C   0  0  0  0  0  0  0  0  0  0  0  0
   -0.7500    1.2990    0.0000 C   0  0  0  0  0  0  0  0  0  0  0  0
    0.7500    1.2990    0.0000 C   0  0  0  0  0  0  0  0  0  0  0  0
   43.5490    0.0000    0.0000 F   0  0  0  0  0  0  0  0  0  0  0  0
   42.0490    0.0000    0.0000 C   0  0  0  0  0  0  0  0  0  0  0  0
   42.0490    1.5000    0.0000 F   0  0  0  0  0  0  0  0  0  0  0  0
   42.0490   -1.5000    0.0000 F   0  0  0  0  0  0  0  0  0  0  0  0
   40.5490    0.0000    0.0000 C   0  0  0  0  0  0  0  0  0  0  0  0
   40.5490   -1.5000    0.0000 F   0  0  0  0  0  0  0  0  0  0  0  0
   40.5490    1.5000    0.0000 F   0  0  0  0  0  0  0  0  0  0  0  0
   39.0490    0.0000    0.0000 C   0  0  0  0  0  0  0  0  0  0  0  0
   39.0490    1.5000    0.0000 F   0  0  0  0  0  0  0  0  0  0  0  0
   39.0490   -1.5000    0.0000 F   0  0  0  0  0  0  0  0  0  0  0  0
   37.5490    0.0000    0.0000 C   0  0  0  0  0  0  0  0  0  0  0  0
   37.5490   -1.5000    0.0000 F   0  0  0  0  0  0  0  0  0  0  0  0
   37.5490    1.5000    0.0000 F   0  0  0  0  0  0  0  0  0  0  0  0
   36.0490    0.0000    0.0000 C   0  0  0  0  0  0  0  0  0  0  0  0
   36.0490    1.5000    0.0000 F   0  0  0  0  0  0  0  0  0  0  0  0
   36.0490   -1.5000    0.0000 F   0  0  0  0  0  0  0  0  0  0  0  0
   34.5490    0.0000    0.0000 C   0  0  0  0  0  0  0  0  0  0  0  0
   34.5490   -1.5000    0.0000 F   0  0  0  0  0  0  0  0  0  0  0  0
   34.5490    1.5000    0.0000 F   0  0  0  0  0  0  0  0  0  0  0  0
   33.0490    0.0000    0.0000 C   0  0  0  0  0  0  0  0  0  0  0  0
   33.0490    1.5000    0.0000 F   0  0  0  0  0  0  0  0  0  0  0  0
   33.0490   -1.5000    0.0000 F   0  0  0  0  0  0  0  0  0  0  0  0
   31.5490    0.0000    0.0000 C   0  0  0  0  0  0  0  0  0  0  0  0
   31.5490   -1.5000    0.0000 F   0  0  0  0  0  0  0  0  0  0  0  0
   31.5490    1.5000    0.0000 F   0  0  0  0  0  0  0  0  0  0  0  0
   30.0490    0.0000    0.0000 C   0  0  0  0  0  0  0  0  0  0  0  0
   29.2990   -1.2990    0.0000 C   0  0  0  0  0  0  0  0  0  0  0  0
   27.7990   -1.2990    0.0000 C   0  0  0  0  0  0  0  0  0  0  0  0
   27.0490    0.0000    0.0000 C   0  0  0  0  0  0  0  0  0  0  0  0
   25.5490    0.0000    0.0000 P   0  0  0  0  0  0  0  0  0  0  0  0
   24.7990    1.2990    0.0000 C   0  0  0  0  0  0  0  0  0  0  0  0
   25.5490    2.5981    0.0000 C   0  0  0  0  0  0  0  0  0  0  0  0
   24.7990    3.8971    0.0000 C   0  0  0  0  0  0  0  0  0  0  0  0
   23.2990    3.8971    0.0000 C   0  0  0  0  0  0  0  0  0  0  0  0
   22.5490    5.1962    0.0000 C   0  0  0  0  0  0  0  0  0  0  0  0
   23.8481    5.9462    0.0000 F   0  0  0  0  0  0  0  0  0  0  0  0
   21.2500    4.4462    0.0000 F   0  0  0  0  0  0  0  0  0  0  0  0
   21.7990    6.4952    0.0000 C   0  0  0  0  0  0  0  0  0  0  0  0
   20.5000    5.7452    0.0000 F   0  0  0  0  0  0  0  0  0  0  0  0
   23.0981    7.2452    0.0000 F   0  0  0  0  0  0  0  0  0  0  0  0
   21.0490    7.7942    0.0000 C   0  0  0  0  0  0  0  0  0  0  0  0
   22.3481    8.5442    0.0000 F   0  0  0  0  0  0  0  0  0  0  0  0
   19.7500    7.0442    0.0000 F   0  0  0  0  0  0  0  0  0  0  0  0
   20.2990    9.0933    0.0000 C   0  0  0  0  0  0  0  0  0  0  0  0
   19.0000    8.3433    0.0000 F   0  0  0  0  0  0  0  0  0  0  0  0
   21.5981    9.8433    0.0000 F   0  0  0  0  0  0  0  0  0  0  0  0
   19.5490   10.3923    0.0000 C   0  0  0  0  0  0  0  0  0  0  0  0
   20.8481   11.1423    0.0000 F   0  0  0  0  0  0  0  0  0  0  0  0
   18.2500    9.6423    0.0000 F   0  0  0  0  0  0  0  0  0  0  0  0
   18.7990   11.6913    0.0000 C   0  0  0  0  0  0  0  0  0  0  0  0
   17.5000   10.9413    0.0000 F   0  0  0  0  0  0  0  0  0  0  0  0
   20.0981   12.4413    0.0000 F   0  0  0  0  0  0  0  0  0  0  0  0
   18.0490   12.9904    0.0000 C   0  0  0  0  0  0  0  0  0  0  0  0
   19.3481   13.7404    0.0000 F   0  0  0  0  0  0  0  0  0  0  0  0
   16.7500   12.2404    0.0000 F   0  0  0  0  0  0  0  0  0  0  0  0
   17.2990   14.2894    0.0000 C   0  0  0  0  0  0  0  0  0  0  0  0
   16.5490   15.5885    0.0000 F   0  0  0  0  0  0  0  0  0  0  0  0
   16.0000   13.5394    0.0000 F   0  0  0  0  0  0  0  0  0  0  0  0
   18.5981   15.0394    0.0000 F   0  0  0  0  0  0  0  0  0  0  0  0
   22.5490    2.5981    0.0000 C   0  0  0  0  0  0  0  0  0  0  0  0
   23.2990    1.2990    0.0000 C   0  0  0  0  0  0  0  0  0  0  0  0
   24.7990   -1.2990    0.0000 C   0  0  0  0  0  0  0  0  0  0  0  0
   23.2990   -1.2990    0.0000 C   0  0  0  0  0  0  0  0  0  0  0  0
   22.5490   -2.5981    0.0000 C   0  0  0  0  0  0  0  0  0  0  0  0
   23.2990   -3.8971    0.0000 C   0  0  0  0  0  0  0  0  0  0  0  0
   22.5490   -5.1962    0.0000 C   0  0  0  0  0  0  0  0  0  0  0  0
   21.2500   -4.4462    0.0000 F   0  0  0  0  0  0  0  0  0  0  0  0
   23.8481   -5.9462    0.0000 F   0  0  0  0  0  0  0  0  0  0  0  0
   21.7990   -6.4952    0.0000 C   0  0  0  0  0  0  0  0  0  0  0  0
   23.0981   -7.2452    0.0000 F   0  0  0  0  0  0  0  0  0  0  0  0
   20.5000   -5.7452    0.0000 F   0  0  0  0  0  0  0  0  0  0  0  0
   21.0490   -7.7942    0.0000 C   0  0  0  0  0  0  0  0  0  0  0  0
   19.7500   -7.0442    0.0000 F   0  0  0  0  0  0  0  0  0  0  0  0
   22.3481   -8.5442    0.0000 F   0  0  0  0  0  0  0  0  0  0  0  0
   20.2990   -9.0933    0.0000 C   0  0  0  0  0  0  0  0  0  0  0  0
   21.5981   -9.8433    0.0000 F   0  0  0  0  0  0  0  0  0  0  0  0
   19.0000   -8.3433    0.0000 F   0  0  0  0  0  0  0  0  0  0  0  0
   19.5490  -10.3923    0.0000 C   0  0  0  0  0  0  0  0  0  0  0  0
   18.2500   -9.6423    0.0000 F   0  0  0  0  0  0  0  0  0  0  0  0
   20.8481  -11.1423    0.0000 F   0  0  0  0  0  0  0  0  0  0  0  0
   18.7990  -11.6913    0.0000 C   0  0  0  0  0  0  0  0  0  0  0  0
   20.0981  -12.4413    0.0000 F   0  0  0  0  0  0  0  0  0  0  0  0
   17.5000  -10.9413    0.0000 F   0  0  0  0  0  0  0  0  0  0  0  0
   18.0490  -12.9904    0.0000 C   0  0  0  0  0  0  0  0  0  0  0  0
   16.7500  -12.2404    0.0000 F   0  0  0  0  0  0  0  0  0  0  0  0
   19.3481  -13.7404    0.0000 F   0  0  0  0  0  0  0  0  0  0  0  0
   17.2990  -14.2894    0.0000 C   0  0  0  0  0  0  0  0  0  0  0  0
   16.5490  -15.5885    0.0000 F   0  0  0  0  0  0  0  0  0  0  0  0
   18.5981  -15.0394    0.0000 F   0  0  0  0  0  0  0  0  0  0  0  0
   16.0000  -13.5394    0.0000 F   0  0  0  0  0  0  0  0  0  0  0  0
   24.7990   -3.8971    0.0000 C   0  0  0  0  0  0  0  0  0  0  0  0
   25.5490   -2.5981    0.0000 C   0  0  0  0  0  0  0  0  0  0  0  0
   27.7990    1.2990    0.0000 C   0  0  0  0  0  0  0  0  0  0  0  0
   29.2990    1.2990    0.0000 C   0  0  0  0  0  0  0  0  0  0  0  0
    0.0000   16.5885    0.0000 Cl  0  0  0  0  0  0  0  0  0  0  0  0
    1.2990   17.3385    0.0000 Pd  0  0  0  0  0  2  0  0  0  0  0  0
    2.5981   18.0885    0.0000 Cl  0  0  0  0  0  0  0  0  0  0  0  0
  1  2  1  0
  2  3  1  0
  2  4  1  0
  2  5  1  0
  5  6  1  0
  5  7  1  0
  5  8  1  0
  8  9  1  0
  8 10  1  0
  8 11  1  0
 11 12  1  0
 11 13  1  0
 11 14  1  0
 14 15  1  0
 14 16  1  0
 14 17  1  0
 17 18  1  0
 17 19  1  0
 17 20  1  0
 20 21  1  0
 20 22  1  0
 20 23  1  0
 23 24  1  0
 23 25  1  0
 23 26  1  0
 26 27  2  0
 27 28  1  0
 28 29  2  0
 29 30  1  0
 30 31  1  0
 31 32  2  0
 32 33  1  0
 33 34  2  0
 34 35  1  0
 35 36  1  0
 35 37  1  0
 35 38  1  0
 38 39  1  0
 38 40  1  0
 38 41  1  0
 41 42  1  0
 41 43  1  0
 41 44  1  0
 44 45  1  0
 44 46  1  0
 44 47  1  0
 47 48  1  0
 47 49  1  0
 47 50  1  0
 50 51  1  0
 50 52  1  0
 50 53  1  0
 53 54  1  0
 53 55  1  0
 53 56  1  0
 56 57  1  0
 56 58  1  0
 56 59  1  0
 34 60  1  0
 60 61  2  0
 30 62  1  0
 62 63  2  0
 63 64  1  0
 64 65  2  0
 65 66  1  0
 66 67  1  0
 66 68  1  0
 66 69  1  0
 69 70  1  0
 69 71  1  0
 69 72  1  0
 72 73  1  0
 72 74  1  0
 72 75  1  0
 75 76  1  0
 75 77  1  0
 75 78  1  0
 78 79  1  0
 78 80  1  0
 78 81  1  0
 81 82  1  0
 81 83  1  0
 81 84  1  0
 84 85  1  0
 84 86  1  0
 84 87  1  0
 87 88  1  0
 87 89  1  0
 87 90  1  0
 65 91  1  0
 91 92  2  0
 29 93  1  0
 93 94  2  0
 95 96  1  0
 96 97  1  0
 96 98  1  0
 96 99  1  0
 99100  1  0
 99101  1  0
 99102  1  0
102103  1  0
102104  1  0
102105  1  0
105106  1  0
105107  1  0
105108  1  0
108109  1  0
108110  1  0
108111  1  0
111112  1  0
111113  1  0
111114  1  0
114115  1  0
114116  1  0
114117  1  0
117118  1  0
117119  1  0
117120  1  0
120121  2  0
121122  1  0
122123  2  0
123124  1  0
124125  1  0
125126  2  0
126127  1  0
127128  2  0
128129  1  0
129130  1  0
129131  1  0
129132  1  0
132133  1  0
132134  1  0
132135  1  0
135136  1  0
135137  1  0
135138  1  0
138139  1  0
138140  1  0
138141  1  0
141142  1  0
141143  1  0
141144  1  0
144145  1  0
144146  1  0
144147  1  0
147148  1  0
147149  1  0
147150  1  0
150151  1  0
150152  1  0
150153  1  0
128154  1  0
154155  2  0
124156  1  0
156157  2  0
157158  1  0
158159  2  0
159160  1  0
160161  1  0
160162  1  0
160163  1  0
163164  1  0
163165  1  0
163166  1  0
166167  1  0
166168  1  0
166169  1  0
169170  1  0
169171  1  0
169172  1  0
172173  1  0
172174  1  0
172175  1  0
175176  1  0
175177  1  0
175178  1  0
178179  1  0
178180  1  0
178181  1  0
181182  1  0
181183  1  0
181184  1  0
159185  1  0
185186  2  0
123187  1  0
187188  2  0
189190  1  0
190191  1  0
 94 26  1  0
188120  1  0
 61 31  1  0
 92 62  1  0
155125  1  0
186156  1  0
M  END
$$$$

     RDKit          2D

 47 48  0  0  0  0  0  0  0  0999 V2000
    2.5565   -4.8847    0.0000 C   0  0  0  0  0  0  0  0  0  0  0  0
    1.4418   -3.8810    0.0000 C   0  0  0  0  0  0  0  0  0  0  0  0
    1.7537   -2.4138    0.0000 N   0  0  0  0  0  0  0  0  0  0  0  0
    0.7500   -1.2990    0.0000 C   0  0  0  0  0  0  0  0  0  0  0  0
   -0.7500   -1.2990    0.0000 C   0  0  0  0  0  0  0  0  0  0  0  0
   -1.5000    0.0000    0.0000 C   0  0  0  0  0  0  0  0  0  0  0  0
   -0.7500    1.2990    0.0000 C   0  0  0  0  0  0  0  0  0  0  0  0
   -1.5000    2.5981    0.0000 S   0  0  0  0  0  0  0  0  0  0  0  0
   -2.1366    2.1183    0.0000 O   0  0  0  0  0  0  0  0  0  0  0  0
   -0.2010    3.3481    0.0000 O   0  0  0  0  0  0  0  0  0  0  0  0
   -2.2500    3.8971    0.0000 C   0  0  0  0  0  0  0  0  0  0  0  0
   -0.9510    4.6471    0.0000 F   0  0  0  0  0  0  0  0  0  0  0  0
   -3.0000    5.1962    0.0000 F   0  0  0  0  0  0  0  0  0  0  0  0
   -3.5490    3.1471    0.0000 C   0  0  0  0  0  0  0  0  0  0  0  0
   -3.2030    2.3318    0.0000 F   0  0  0  0  0  0  0  0  0  0  0  0
   -4.2990    4.4462    0.0000 F   0  0  0  0  0  0  0  0  0  0  0  0
   -4.8481    2.3971    0.0000 C   0  0  0  0  0  0  0  0  0  0  0  0
   -4.0981    1.0981    0.0000 F   0  0  0  0  0  0  0  0  0  0  0  0
   -5.5981    3.6962    0.0000 F   0  0  0  0  0  0  0  0  0  0  0  0
   -6.1471    1.6471    0.0000 C   0  0  0  0  0  0  0  0  0  0  0  0
   -5.3971    0.3481    0.0000 F   0  0  0  0  0  0  0  0  0  0  0  0
   -6.8971    2.9462    0.0000 F   0  0  0  0  0  0  0  0  0  0  0  0
   -7.4462    0.8971    0.0000 C   0  0  0  0  0  0  0  0  0  0  0  0
   -8.1962    2.1962    0.0000 F   0  0  0  0  0  0  0  0  0  0  0  0
   -6.6962   -0.4019    0.0000 F   0  0  0  0  0  0  0  0  0  0  0  0
   -8.7452    0.1471    0.0000 C   0  0  0  0  0  0  0  0  0  0  0  0
  -10.0442   -0.6029    0.0000 F   0  0  0  0  0  0  0  0  0  0  0  0
   -7.9952   -1.1519    0.0000 F   0  0  0  0  0  0  0  0  0  0  0  0
   -9.4952    1.4462    0.0000 F   0  0  0  0  0  0  0  0  0  0  0  0
    0.7500    1.2990    0.0000 C   0  0  0  0  0  0  0  0  0  0  0  0
    1.5000   -0.0000    0.0000 C   0  0  0  0  0  0  0  0  0  0  0  0
    2.9672   -0.3119    0.0000 N   0  0  0  0  0  0  0  0  0  0  0  0
    4.0819    0.6918    0.0000 C   0  0  0  0  0  0  0  0  0  0  0  0
    3.7701    2.1590    0.0000 C   0  0  0  0  0  0  0  0  0  0  0  0
    3.1240   -1.8037    0.0000 C   0  0  0  0  0  0  0  0  0  0  0  0
    4.4231   -2.5537    0.0000 C   0  0  0  0  0  0  0  0  0  0  0  0
    3.0000    7.6962    0.0000 C   0  0  0  0  0  0  0  0  0  0  0  0
    1.5000    7.6962    0.0000 C   0  0  0  0  0  0  0  0  0  0  0  0
    0.7500    6.3971    0.0000 C   0  0  0  0  0  0  0  0  0  0  0  0
   -0.7500    6.3971    0.0000 C   0  0  0  0  0  0  0  0  0  0  0  0
   -1.5000    7.6962    0.0000 C   0  0  0  0  0  0  0  0  0  0  0  0
   -3.0000    7.6962    0.0000 S   0  0  0  0  0  0  0  0  0  0  0  0
   -3.0000    9.1962    0.0000 O   0  0  0  0  0  0  0  0  0  0  0  0
   -3.0000    6.1962    0.0000 O   0  0  0  0  0  0  0  0  0  0  0  0
   -4.5000    7.6962    0.0000 O   0  0  0  0  0  0  0  0  0  0  0  0
   -0.7500    8.9952    0.0000 C   0  0  0  0  0  0  0  0  0  0  0  0
    0.7500    8.9952    0.0000 C   0  0  0  0  0  0  0  0  0  0  0  0
  1  2  1  0
  2  3  1  0
  3  4  1  0
  4  5  2  0
  5  6  1  0
  6  7  2  0
  7  8  1  0
  8  9  2  0
  8 10  2  0
  8 11  1  0
 11 12  1  0
 11 13  1  0
 11 14  1  0
 14 15  1  0
 14 16  1  0
 14 17  1  0
 17 18  1  0
 17 19  1  0
 17 20  1  0
 20 21  1  0
 20 22  1  0
 20 23  1  0
 23 24  1  0
 23 25  1  0
 23 26  1  0
 26 27  1  0
 26 28  1  0
 26 29  1  0
  7 30  1  0
 30 31  2  0
 31 32  1  0
 32 33  1  0
 33 34  1  0
 32 35  1  0
 35 36  1  0
 37 38  1  0
 38 39  2  0
 39 40  1  0
 40 41  2  0
 41 42  1  0
 42 43  2  0
 42 44  2  0
 42 45  1  0
 41 46  1  0
 46 47  2  0
 35  3  1  0
 47 38  1  0
 31  4  1  0
M  CHG  1  32   1
M  END
$$$$

     RDKit          2D

 87 92  0  0  0  0  0  0  0  0999 V2000
    3.1652   11.9813    0.0000 C   0  0  0  0  0  0  0  0  0  0  0  0
    2.5551   10.6110    0.0000 O   0  0  0  0  0  0  0  0  0  0  0  0
    3.4367    9.3975    0.0000 C   0  0  0  0  0  0  0  0  0  0  0  0
    4.9285    9.5543    0.0000 C   0  0  0  0  0  0  0  0  0  0  0  0
    5.8102    8.3407    0.0000 C   0  0  0  0  0  0  0  0  0  0  0  0
    5.2001    6.9704    0.0000 C   0  0  0  0  0  0  0  0  0  0  0  0
    6.0818    5.7569    0.0000 C   0  0  0  0  0  0  0  0  0  0  0  0
    4.8683    4.8752    0.0000 O   0  0  0  0  0  0  0  0  0  0  0  0
    3.4979    5.4853    0.0000 C   0  0  0  0  0  0  0  0  0  0  0  0
    2.2844    4.6036    0.0000 C   0  0  0  0  0  0  0  0  0  0  0  0
    2.2844    3.1036    0.0000 O   0  0  0  0  0  0  0  0  0  0  0  0
    0.8578    2.6401    0.0000 C   0  0  0  0  0  0  0  0  0  0  0  0
    0.3943    1.2135    0.0000 N   0  0  0  0  0  0  0  0  0  0  0  0
   -1.0323    0.7500    0.0000 C   0  0  0  0  0  0  0  0  0  0  0  0
   -1.0323   -0.7500    0.0000 N   0  0  0  0  0  0  0  0  0  0  0  0
    0.3943   -1.2135    0.0000 C   0  0  0  0  0  0  0  0  0  0  0  0
    1.0044   -2.5838    0.0000 C   0  0  0  0  0  0  0  0  0  0  0  0
    0.1227   -3.7974    0.0000 O   0  0  0  0  0  0  0  0  0  0  0  0
    2.4962   -2.7406    0.0000 N   0  0  0  0  0  0  0  0  0  0  0  0
    3.3779   -1.5271    0.0000 C   0  0  0  0  0  0  0  0  0  0  0  0
    4.8696   -1.6839    0.0000 N   0  0  0  0  0  0  0  0  0  0  0  0
    5.7513   -0.4704    0.0000 C   0  0  0  0  0  0  0  0  0  0  0  0
    5.1412    0.8999    0.0000 O   0  0  0  0  0  0  0  0  0  0  0  0
    7.2431   -0.6272    0.0000 C   0  0  0  0  0  0  0  0  0  0  0  0
    8.1248    0.5864    0.0000 C   0  0  0  0  0  0  0  0  0  0  0  0
    7.8532   -1.9975    0.0000 C   0  0  0  0  0  0  0  0  0  0  0  0
    2.7678   -0.1568    0.0000 N   0  0  0  0  0  0  0  0  0  0  0  0
    1.2760    0.0000    0.0000 C   0  0  0  0  0  0  0  0  0  0  0  0
   -0.0239    3.8536    0.0000 C   0  0  0  0  0  0  0  0  0  0  0  0
    0.8578    5.0672    0.0000 C   0  0  0  0  0  0  0  0  0  0  0  0
    0.3943    6.4937    0.0000 O   0  0  0  0  0  0  0  0  0  0  0  0
   -1.0729    6.8056    0.0000 P   0  0  0  0  0  0  0  0  0  0  0  0
   -2.0766    5.6909    0.0000 O   0  0  0  0  0  0  0  0  0  0  0  0
   -3.5438    6.0028    0.0000 C   0  0  0  0  0  0  0  0  0  0  0  0
   -4.5475    4.8880    0.0000 C   0  0  0  0  0  0  0  0  0  0  0  0
   -4.0840    3.4615    0.0000 C   0  0  0  0  0  0  0  0  0  0  0  0
   -3.6205    2.0349    0.0000 N   0  0  0  0  0  0  0  0  0  0  0  0
   -1.5364    8.2322    0.0000 N   0  0  0  0  0  0  0  0  0  0  0  0
   -3.0037    8.5441    0.0000 C   0  0  0  0  0  0  0  0  0  0  0  0
   -3.4672    9.9707    0.0000 C   0  0  0  0  0  0  0  0  0  0  0  0
   -4.0074    7.4293    0.0000 C   0  0  0  0  0  0  0  0  0  0  0  0
   -0.5328    9.3469    0.0000 C   0  0  0  0  0  0  0  0  0  0  0  0
   -0.9963   10.7735    0.0000 C   0  0  0  0  0  0  0  0  0  0  0  0
    0.9345    9.0350    0.0000 C   0  0  0  0  0  0  0  0  0  0  0  0
    6.9635    4.5434    0.0000 C   0  0  0  0  0  0  0  0  0  0  0  0
    6.3534    3.1730    0.0000 C   0  0  0  0  0  0  0  0  0  0  0  0
    7.2350    1.9595    0.0000 C   0  0  0  0  0  0  0  0  0  0  0  0
    8.7268    2.1163    0.0000 C   0  0  0  0  0  0  0  0  0  0  0  0
    9.6085    0.9028    0.0000 C   0  0  0  0  0  0  0  0  0  0  0  0
    8.9984   -0.4675    0.0000 C   0  0  0  0  0  0  0  0  0  0  0  0
    9.8801   -1.6811    0.0000 C   0  0  0  0  0  0  0  0  0  0  0  0
    8.6665   -2.5627    0.0000 F   0  0  0  0  0  0  0  0  0  0  0  0
   11.0936   -0.7994    0.0000 F   0  0  0  0  0  0  0  0  0  0  0  0
   10.7617   -2.8946    0.0000 C   0  0  0  0  0  0  0  0  0  0  0  0
   11.9753   -2.0129    0.0000 F   0  0  0  0  0  0  0  0  0  0  0  0
    9.5482   -3.7763    0.0000 F   0  0  0  0  0  0  0  0  0  0  0  0
   11.6434   -4.1081    0.0000 C   0  0  0  0  0  0  0  0  0  0  0  0
   10.4299   -4.9898    0.0000 F   0  0  0  0  0  0  0  0  0  0  0  0
   12.8569   -3.2264    0.0000 F   0  0  0  0  0  0  0  0  0  0  0  0
   12.5251   -5.3216    0.0000 C   0  0  0  0  0  0  0  0  0  0  0  0
   13.7386   -4.4400    0.0000 F   0  0  0  0  0  0  0  0  0  0  0  0
   11.3116   -6.2033    0.0000 F   0  0  0  0  0  0  0  0  0  0  0  0
   13.4068   -6.5352    0.0000 C   0  0  0  0  0  0  0  0  0  0  0  0
   12.1932   -7.4168    0.0000 F   0  0  0  0  0  0  0  0  0  0  0  0
   14.6203   -5.6535    0.0000 F   0  0  0  0  0  0  0  0  0  0  0  0
   14.2885   -7.7487    0.0000 C   0  0  0  0  0  0  0  0  0  0  0  0
   15.5020   -6.8670    0.0000 F   0  0  0  0  0  0  0  0  0  0  0  0
   13.0749   -8.6304    0.0000 F   0  0  0  0  0  0  0  0  0  0  0  0
   15.1701   -8.9622    0.0000 C   0  0  0  0  0  0  0  0  0  0  0  0
   13.9566   -9.8439    0.0000 F   0  0  0  0  0  0  0  0  0  0  0  0
   16.3837   -8.0805    0.0000 F   0  0  0  0  0  0  0  0  0  0  0  0
   16.0518  -10.1757    0.0000 C   0  0  0  0  0  0  0  0  0  0  0  0
   16.9335  -11.3893    0.0000 F   0  0  0  0  0  0  0  0  0  0  0  0
   17.2653   -9.2941    0.0000 F   0  0  0  0  0  0  0  0  0  0  0  0
   14.8383  -11.0574    0.0000 F   0  0  0  0  0  0  0  0  0  0  0  0
    9.3369    3.4866    0.0000 C   0  0  0  0  0  0  0  0  0  0  0  0
    8.4552    4.7002    0.0000 C   0  0  0  0  0  0  0  0  0  0  0  0
    7.2953    6.6386    0.0000 C   0  0  0  0  0  0  0  0  0  0  0  0
    8.6656    6.0285    0.0000 C   0  0  0  0  0  0  0  0  0  0  0  0
    9.8791    6.9101    0.0000 C   0  0  0  0  0  0  0  0  0  0  0  0
    9.7224    8.4019    0.0000 C   0  0  0  0  0  0  0  0  0  0  0  0
   10.9359    9.2836    0.0000 O   0  0  0  0  0  0  0  0  0  0  0  0
   12.3062    8.6735    0.0000 C   0  0  0  0  0  0  0  0  0  0  0  0
    8.3520    9.0120    0.0000 C   0  0  0  0  0  0  0  0  0  0  0  0
    7.1385    8.1303    0.0000 C   0  0  0  0  0  0  0  0  0  0  0  0
    3.7083    6.8136    0.0000 C   0  0  0  0  0  0  0  0  0  0  0  0
    2.8266    8.0271    0.0000 C   0  0  0  0  0  0  0  0  0  0  0  0
  1  2  1  0
  2  3  1  0
  3  4  2  0
  4  5  1  0
  5  6  2  0
  6  7  1  0
  7  8  1  0
  8  9  1  0
 10  9  1  1
 10 11  1  0
 11 12  1  0
 12 13  1  0
 13 14  1  0
 14 15  2  0
 15 16  1  0
 16 17  1  0
 17 18  2  0
 17 19  1  0
 19 20  1  0
 20 21  1  0
 21 22  1  0
 22 23  2  0
 22 24  1  0
 24 25  1  0
 24 26  1  0
 20 27  2  0
 27 28  1  0
 12 29  1  0
 29 30  1  0
 30 31  1  6
 31 32  1  0
 32 33  1  0
 33 34  1  0
 34 35  1  0
 35 36  1  0
 36 37  3  0
 32 38  1  0
 38 39  1  0
 39 40  1  0
 39 41  1  0
 38 42  1  0
 42 43  1  0
 42 44  1  0
  7 45  1  0
 45 46  2  0
 46 47  1  0
 47 48  2  0
 48 49  1  0
 49 50  1  0
 50 51  1  0
 51 52  1  0
 51 53  1  0
 51 54  1  0
 54 55  1  0
 54 56  1  0
 54 57  1  0
 57 58  1  0
 57 59  1  0
 57 60  1  0
 60 61  1  0
 60 62  1  0
 60 63  1  0
 63 64  1  0
 63 65  1  0
 63 66  1  0
 66 67  1  0
 66 68  1  0
 66 69  1  0
 69 70  1  0
 69 71  1  0
 69 72  1  0
 72 73  1  0
 72 74  1  0
 72 75  1  0
 48 76  1  0
 76 77  2  0
  7 78  1  0
 78 79  2  0
 79 80  1  0
 80 81  2  0
 81 82  1  0
 82 83  1  0
 81 84  1  0
 84 85  2  0
  6 86  1  0
 86 87  2  0
 87  3  1  0
 30 10  1  0
 77 45  1  0
 85 78  1  0
 28 13  1  0
 28 16  2  0
M  END
$$$$

     RDKit          2D

 23 22  0  0  0  0  0  0  0  0999 V2000
   -3.0000   -2.5981    0.0000 C   0  0  0  0  0  0  0  0  0  0  0  0
   -2.2500   -1.2990    0.0000 C   0  0  0  0  0  0  0  0  0  0  0  0
   -0.7500   -1.2990    0.0000 C   0  0  0  0  0  0  0  0  0  0  0  0
    0.0000    0.0000    0.0000 N   0  0  0  0  0  0  0  0  0  0  0  0
    1.5000   -0.0000    0.0000 C   0  0  0  0  0  0  0  0  0  0  0  0
    1.8115    0.7338    0.0000 O   0  0  0  0  0  0  0  0  0  0  0  0
    2.2500   -1.2990    0.0000 C   0  0  0  0  0  0  0  0  0  0  0  0
    0.9510   -2.0490    0.0000 F   0  0  0  0  0  0  0  0  0  0  0  0
    3.5490   -0.5490    0.0000 O   0  0  0  0  0  0  0  0  0  0  0  0
    3.5490    0.9510    0.0000 C   0  0  0  0  0  0  0  0  0  0  0  0
    5.0490    0.9510    0.0000 F   0  0  0  0  0  0  0  0  0  0  0  0
    2.7578    1.0481    0.0000 F   0  0  0  0  0  0  0  0  0  0  0  0
    3.5490    2.4510    0.0000 C   0  0  0  0  0  0  0  0  0  0  0  0
    2.0490    2.4510    0.0000 F   0  0  0  0  0  0  0  0  0  0  0  0
    5.0490    2.4510    0.0000 F   0  0  0  0  0  0  0  0  0  0  0  0
    3.5490    3.9510    0.0000 C   0  0  0  0  0  0  0  0  0  0  0  0
    3.5490    5.4510    0.0000 F   0  0  0  0  0  0  0  0  0  0  0  0
    5.0490    3.9510    0.0000 F   0  0  0  0  0  0  0  0  0  0  0  0
    2.0490    3.9510    0.0000 F   0  0  0  0  0  0  0  0  0  0  0  0
    3.0000   -2.5981    0.0000 C   0  0  0  0  0  0  0  0  0  0  0  0
    3.7500   -3.8971    0.0000 F   0  0  0  0  0  0  0  0  0  0  0  0
    1.7010   -3.3481    0.0000 F   0  0  0  0  0  0  0  0  0  0  0  0
    4.2990   -1.8481    0.0000 F   0  0  0  0  0  0  0  0  0  0  0  0
  1  2  2  0
  2  3  1  0
  3  4  1  0
  4  5  2  0
  5  6  1  0
  5  7  1  0
  7  8  1  0
  7  9  1  0
  9 10  1  0
 10 11  1  0
 10 12  1  0
 10 13  1  0
 13 14  1  0
 13 15  1  0
 13 16  1  0
 16 17  1  0
 16 18  1  0
 16 19  1  0
  7 20  1  0
 20 21  1  0
 20 22  1  0
 20 23  1  0
M  END
$$$$

     RDKit          2D

 33 32  0  0  0  0  0  0  0  0999 V2000
    0.0000    0.0000    0.0000 C   0  0  0  0  0  0  0  0  0  0  0  0
    1.2990    0.7500    0.0000 C   0  0  0  0  0  0  0  0  0  0  0  0
    2.5981   -0.0000    0.0000 C   0  0  0  0  0  0  0  0  0  0  0  0
    3.8971    0.7500    0.0000 N   0  0  0  0  0  0  0  0  0  0  0  0
    5.1962   -0.0000    0.0000 C   0  0  0  0  0  0  0  0  0  0  0  0
    5.1962   -1.5000    0.0000 O   0  0  0  0  0  0  0  0  0  0  0  0
    6.4952    0.7500    0.0000 C   0  0  0  0  0  0  0  0  0  0  0  0
    5.7452    2.0490    0.0000 F   0  0  0  0  0  0  0  0  0  0  0  0
    7.2452   -0.5490    0.0000 O   0  0  0  0  0  0  0  0  0  0  0  0
    8.7452   -0.5490    0.0000 C   0  0  0  0  0  0  0  0  0  0  0  0
    8.9280    0.9398    0.0000 F   0  0  0  0  0  0  0  0  0  0  0  0
    8.7452   -2.0490    0.0000 F   0  0  0  0  0  0  0  0  0  0  0  0
   10.2452   -0.5490    0.0000 C   0  0  0  0  0  0  0  0  0  0  0  0
   10.2452    0.9510    0.0000 F   0  0  0  0  0  0  0  0  0  0  0  0
   10.2452   -2.0490    0.0000 O   0  0  0  0  0  0  0  0  0  0  0  0
   11.5442   -2.7990    0.0000 C   0  0  0  0  0  0  0  0  0  0  0  0
   12.0240   -2.1624    0.0000 F   0  0  0  0  0  0  0  0  0  0  0  0
   10.7942   -4.0981    0.0000 F   0  0  0  0  0  0  0  0  0  0  0  0
   12.8433   -3.5490    0.0000 C   0  0  0  0  0  0  0  0  0  0  0  0
   12.0933   -4.8481    0.0000 F   0  0  0  0  0  0  0  0  0  0  0  0
   13.5933   -2.2500    0.0000 F   0  0  0  0  0  0  0  0  0  0  0  0
   14.1423   -4.2990    0.0000 C   0  0  0  0  0  0  0  0  0  0  0  0
   15.4413   -5.0490    0.0000 F   0  0  0  0  0  0  0  0  0  0  0  0
   14.8923   -3.0000    0.0000 F   0  0  0  0  0  0  0  0  0  0  0  0
   13.3923   -5.5981    0.0000 F   0  0  0  0  0  0  0  0  0  0  0  0
   11.7452   -0.5490    0.0000 C   0  0  0  0  0  0  0  0  0  0  0  0
   13.2452   -0.5490    0.0000 F   0  0  0  0  0  0  0  0  0  0  0  0
   11.7452    0.9510    0.0000 F   0  0  0  0  0  0  0  0  0  0  0  0
   12.0309   -1.2932    0.0000 F   0  0  0  0  0  0  0  0  0  0  0  0
    7.7942    1.5000    0.0000 C   0  0  0  0  0  0  0  0  0  0  0  0
    9.0933    2.2500    0.0000 F   0  0  0  0  0  0  0  0  0  0  0  0
    7.0442    2.7990    0.0000 F   0  0  0  0  0  0  0  0  0  0  0  0
    8.9600    0.5561    0.0000 F   0  0  0  0  0  0  0  0  0  0  0  0
  1  2  2  0
  2  3  1  0
  3  4  1  0
  4  5  1  0
  5  6  2  0
  5  7  1  0
  7  8  1  0
  7  9  1  0
  9 10  1  0
 10 11  1  0
 10 12  1  0
 10 13  1  0
 13 14  1  0
 13 15  1  0
 15 16  1  0
 16 17  1  0
 16 18  1  0
 16 19  1  0
 19 20  1  0
 19 21  1  0
 19 22  1  0
 22 23  1  0
 22 24  1  0
 22 25  1  0
 13 26  1  0
 26 27  1  0
 26 28  1  0
 26 29  1  0
  7 30  1  0
 30 31  1  0
 30 32  1  0
 30 33  1  0
M  END
$$$$

     RDKit          2D

 76 72  0  0  0  0  0  0  0  0999 V2000
   -0.0000   -1.5000    0.0000 O   0  0  0  0  0  0  0  0  0  0  0  0
    0.0000    0.0000    0.0000 C   0  0  0  0  0  0  0  0  0  0  0  0
   -1.2990    0.7500    0.0000 O   0  0  0  0  0  0  0  0  0  0  0  0
    1.2990    0.7500    0.0000 C   0  0  0  0  0  0  0  0  0  0  0  0
    2.0490   -0.5490    0.0000 F   0  0  0  0  0  0  0  0  0  0  0  0
    0.5490    2.0490    0.0000 F   0  0  0  0  0  0  0  0  0  0  0  0
    2.5981    1.5000    0.0000 C   0  0  0  0  0  0  0  0  0  0  0  0
    1.8481    2.7990    0.0000 F   0  0  0  0  0  0  0  0  0  0  0  0
    3.3481    0.2010    0.0000 F   0  0  0  0  0  0  0  0  0  0  0  0
    3.8971    2.2500    0.0000 C   0  0  0  0  0  0  0  0  0  0  0  0
    3.1471    3.5490    0.0000 F   0  0  0  0  0  0  0  0  0  0  0  0
    4.6471    0.9510    0.0000 F   0  0  0  0  0  0  0  0  0  0  0  0
    5.1962    3.0000    0.0000 C   0  0  0  0  0  0  0  0  0  0  0  0
    5.5422    2.1847    0.0000 F   0  0  0  0  0  0  0  0  0  0  0  0
    4.4462    4.2990    0.0000 F   0  0  0  0  0  0  0  0  0  0  0  0
    6.4952    3.7500    0.0000 C   0  0  0  0  0  0  0  0  0  0  0  0
    5.7452    5.0490    0.0000 F   0  0  0  0  0  0  0  0  0  0  0  0
    7.7942    4.5000    0.0000 C   0  0  0  0  0  0  0  0  0  0  0  0
    9.0933    5.2500    0.0000 F   0  0  0  0  0  0  0  0  0  0  0  0
    7.0442    5.7990    0.0000 F   0  0  0  0  0  0  0  0  0  0  0  0
    8.3273    3.7926    0.0000 F   0  0  0  0  0  0  0  0  0  0  0  0
    7.2452    2.4510    0.0000 C   0  0  0  0  0  0  0  0  0  0  0  0
    7.9952    1.1519    0.0000 F   0  0  0  0  0  0  0  0  0  0  0  0
    8.0605    2.7970    0.0000 F   0  0  0  0  0  0  0  0  0  0  0  0
    6.5378    1.9179    0.0000 F   0  0  0  0  0  0  0  0  0  0  0  0
   -0.0000    6.7990    0.0000 O   0  0  0  0  0  0  0  0  0  0  0  0
    0.0000    8.2990    0.0000 C   0  0  0  0  0  0  0  0  0  0  0  0
   -1.2990    9.0490    0.0000 O   0  0  0  0  0  0  0  0  0  0  0  0
    1.2990    9.0490    0.0000 C   0  0  0  0  0  0  0  0  0  0  0  0
    2.0490    7.7500    0.0000 F   0  0  0  0  0  0  0  0  0  0  0  0
    0.5490   10.3481    0.0000 F   0  0  0  0  0  0  0  0  0  0  0  0
    2.5981    9.7990    0.0000 C   0  0  0  0  0  0  0  0  0  0  0  0
    1.8481   11.0981    0.0000 F   0  0  0  0  0  0  0  0  0  0  0  0
    3.3481    8.5000    0.0000 F   0  0  0  0  0  0  0  0  0  0  0  0
    3.8971   10.5490    0.0000 C   0  0  0  0  0  0  0  0  0  0  0  0
    3.1471   11.8481    0.0000 F   0  0  0  0  0  0  0  0  0  0  0  0
    4.6471    9.2500    0.0000 F   0  0  0  0  0  0  0  0  0  0  0  0
    5.1962   11.2990    0.0000 C   0  0  0  0  0  0  0  0  0  0  0  0
    5.5422   10.4837    0.0000 F   0  0  0  0  0  0  0  0  0  0  0  0
    4.4462   12.5981    0.0000 F   0  0  0  0  0  0  0  0  0  0  0  0
    6.4952   12.0490    0.0000 C   0  0  0  0  0  0  0  0  0  0  0  0
    5.7452   13.3481    0.0000 F   0  0  0  0  0  0  0  0  0  0  0  0
    7.7942   12.7990    0.0000 C   0  0  0  0  0  0  0  0  0  0  0  0
    9.0933   13.5490    0.0000 F   0  0  0  0  0  0  0  0  0  0  0  0
    7.0442   14.0981    0.0000 F   0  0  0  0  0  0  0  0  0  0  0  0
    8.3273   12.0917    0.0000 F   0  0  0  0  0  0  0  0  0  0  0  0
    7.2452   10.7500    0.0000 C   0  0  0  0  0  0  0  0  0  0  0  0
    7.9952    9.4510    0.0000 F   0  0  0  0  0  0  0  0  0  0  0  0
    8.0605   11.0961    0.0000 F   0  0  0  0  0  0  0  0  0  0  0  0
    6.5378   10.2169    0.0000 F   0  0  0  0  0  0  0  0  0  0  0  0
   11.3923   -1.5000    0.0000 O   0  0  0  0  0  0  0  0  0  0  0  0
   11.3923    0.0000    0.0000 C   0  0  0  0  0  0  0  0  0  0  0  0
   10.0933    0.7500    0.0000 O   0  0  0  0  0  0  0  0  0  0  0  0
   12.6913    0.7500    0.0000 C   0  0  0  0  0  0  0  0  0  0  0  0
   13.4413   -0.5490    0.0000 F   0  0  0  0  0  0  0  0  0  0  0  0
   11.9413    2.0490    0.0000 F   0  0  0  0  0  0  0  0  0  0  0  0
   13.9904    1.5000    0.0000 C   0  0  0  0  0  0  0  0  0  0  0  0
   13.2404    2.7990    0.0000 F   0  0  0  0  0  0  0  0  0  0  0  0
   14.7404    0.2010    0.0000 F   0  0  0  0  0  0  0  0  0  0  0  0
   15.2894    2.2500    0.0000 C   0  0  0  0  0  0  0  0  0  0  0  0
   14.5394    3.5490    0.0000 F   0  0  0  0  0  0  0  0  0  0  0  0
   16.0394    0.9510    0.0000 F   0  0  0  0  0  0  0  0  0  0  0  0
   16.5885    3.0000    0.0000 C   0  0  0  0  0  0  0  0  0  0  0  0
   16.9345    2.1847    0.0000 F   0  0  0  0  0  0  0  0  0  0  0  0
   15.8385    4.2990    0.0000 F   0  0  0  0  0  0  0  0  0  0  0  0
   17.8875    3.7500    0.0000 C   0  0  0  0  0  0  0  0  0  0  0  0
   17.1375    5.0490    0.0000 F   0  0  0  0  0  0  0  0  0  0  0  0
   19.1865    4.5000    0.0000 C   0  0  0  0  0  0  0  0  0  0  0  0
   20.4856    5.2500    0.0000 F   0  0  0  0  0  0  0  0  0  0  0  0
   18.4365    5.7990    0.0000 F   0  0  0  0  0  0  0  0  0  0  0  0
   19.7196    3.7926    0.0000 F   0  0  0  0  0  0  0  0  0  0  0  0
   18.6375    2.4510    0.0000 C   0  0  0  0  0  0  0  0  0  0  0  0
   19.3875    1.1519    0.0000 F   0  0  0  0  0  0  0  0  0  0  0  0
   19.4528    2.7970    0.0000 F   0  0  0  0  0  0  0  0  0  0  0  0
   17.9301    1.9179    0.0000 F   0  0  0  0  0  0  0  0  0  0  0  0
    0.0000   15.0981    0.0000 Al  0  0  0  0  0 15  0  0  0  0  0  0
  1  2  2  0
  2  3  1  0
  2  4  1  0
  4  5  1  0
  4  6  1  0
  4  7  1  0
  7  8  1  0
  7  9  1  0
  7 10  1  0
 10 11  1  0
 10 12  1  0
 10 13  1  0
 13 14  1  0
 13 15  1  0
 13 16  1  0
 16 17  1  0
 16 18  1  0
 18 19  1  0
 18 20  1  0
 18 21  1  0
 16 22  1  0
 22 23  1  0
 22 24  1  0
 22 25  1  0
 26 27  2  0
 27 28  1  0
 27 29  1  0
 29 30  1  0
 29 31  1  0
 29 32  1  0
 32 33  1  0
 32 34  1  0
 32 35  1  0
 35 36  1  0
 35 37  1  0
 35 38  1  0
 38 39  1  0
 38 40  1  0
 38 41  1  0
 41 42  1  0
 41 43  1  0
 43 44  1  0
 43 45  1  0
 43 46  1  0
 41 47  1  0
 47 48  1  0
 47 49  1  0
 47 50  1  0
 51 52  2  0
 52 53  1  0
 52 54  1  0
 54 55  1  0
 54 56  1  0
 54 57  1  0
 57 58  1  0
 57 59  1  0
 57 60  1  0
 60 61  1  0
 60 62  1  0
 60 63  1  0
 63 64  1  0
 63 65  1  0
 63 66  1  0
 66 67  1  0
 66 68  1  0
 68 69  1  0
 68 70  1  0
 68 71  1  0
 66 72  1  0
 72 73  1  0
 72 74  1  0
 72 75  1  0
M  CHG  4   3  -1  28  -1  53  -1  76   3
M  END
$$$$

     RDKit          2D

 28 27  0  0  0  0  0  0  0  0999 V2000
    1.1979    2.4028    0.0000 O   0  0  0  0  0  0  0  0  0  0  0  0
    0.0000    1.5000    0.0000 S   0  0  0  0  0  0  0  0  0  0  0  0
   -1.2990    2.2500    0.0000 O   0  0  0  0  0  0  0  0  0  0  0  0
    0.0000    0.0000    0.0000 C   0  0  0  0  0  0  0  0  0  0  0  0
   -1.5000   -0.0000    0.0000 F   0  0  0  0  0  0  0  0  0  0  0  0
    0.0000   -1.5000    0.0000 F   0  0  0  0  0  0  0  0  0  0  0  0
    1.5000    0.0000    0.0000 C   0  0  0  0  0  0  0  0  0  0  0  0
    1.6828    1.4888    0.0000 F   0  0  0  0  0  0  0  0  0  0  0  0
    1.5000   -1.5000    0.0000 F   0  0  0  0  0  0  0  0  0  0  0  0
    3.0000    0.0000    0.0000 C   0  0  0  0  0  0  0  0  0  0  0  0
    3.0000   -1.5000    0.0000 F   0  0  0  0  0  0  0  0  0  0  0  0
    3.0000    1.5000    0.0000 F   0  0  0  0  0  0  0  0  0  0  0  0
    4.5000    0.0000    0.0000 C   0  0  0  0  0  0  0  0  0  0  0  0
    4.5000    1.5000    0.0000 F   0  0  0  0  0  0  0  0  0  0  0  0
    4.5000   -1.5000    0.0000 F   0  0  0  0  0  0  0  0  0  0  0  0
    6.0000    0.0000    0.0000 C   0  0  0  0  0  0  0  0  0  0  0  0
    6.0000    1.5000    0.0000 F   0  0  0  0  0  0  0  0  0  0  0  0
    6.0000   -1.5000    0.0000 F   0  0  0  0  0  0  0  0  0  0  0  0
    7.5000    0.0000    0.0000 C   0  0  0  0  0  0  0  0  0  0  0  0
    7.5000   -1.5000    0.0000 F   0  0  0  0  0  0  0  0  0  0  0  0
    7.5000    1.5000    0.0000 F   0  0  0  0  0  0  0  0  0  0  0  0
    9.0000    0.0000    0.0000 C   0  0  0  0  0  0  0  0  0  0  0  0
    9.0000    1.5000    0.0000 F   0  0  0  0  0  0  0  0  0  0  0  0
    9.0000   -1.5000    0.0000 F   0  0  0  0  0  0  0  0  0  0  0  0
   10.5000    0.0000    0.0000 C   0  0  0  0  0  0  0  0  0  0  0  0
   12.0000    0.0000    0.0000 F   0  0  0  0  0  0  0  0  0  0  0  0
   10.5000   -1.5000    0.0000 F   0  0  0  0  0  0  0  0  0  0  0  0
   10.5000    1.5000    0.0000 F   0  0  0  0  0  0  0  0  0  0  0  0
  1  2  2  0
  2  3  1  0
  2  4  1  0
  4  5  1  0
  4  6  1  0
  4  7  1  0
  7  8  1  0
  7  9  1  0
  7 10  1  0
 10 11  1  0
 10 12  1  0
 10 13  1  0
 13 14  1  0
 13 15  1  0
 13 16  1  0
 16 17  1  0
 16 18  1  0
 16 19  1  0
 19 20  1  0
 19 21  1  0
 19 22  1  0
 22 23  1  0
 22 24  1  0
 22 25  1  0
 25 26  1  0
 25 27  1  0
 25 28  1  0
M  END
$$$$

     RDKit          2D

 45 43  0  0  0  0  0  0  0  0999 V2000
   -1.5000   -1.5000    0.0000 O   0  0  0  0  0  0  0  0  0  0  0  0
    0.0000   -1.5000    0.0000 S   0  0  0  0  0  0  0  0  0  0  0  0
    0.7912   -1.5972    0.0000 O   0  0  0  0  0  0  0  0  0  0  0  0
   -0.0000   -3.0000    0.0000 O   0  0  0  0  0  0  0  0  0  0  0  0
    0.0000    0.0000    0.0000 C   0  0  0  0  0  0  0  0  0  0  0  0
   -1.5000    0.0000    0.0000 F   0  0  0  0  0  0  0  0  0  0  0  0
    0.0000    1.5000    0.0000 F   0  0  0  0  0  0  0  0  0  0  0  0
    1.5000    0.0000    0.0000 C   0  0  0  0  0  0  0  0  0  0  0  0
    1.5000    1.5000    0.0000 F   0  0  0  0  0  0  0  0  0  0  0  0
    1.6080   -0.8791    0.0000 F   0  0  0  0  0  0  0  0  0  0  0  0
    3.0000    0.0000    0.0000 C   0  0  0  0  0  0  0  0  0  0  0  0
    3.0000   -1.5000    0.0000 F   0  0  0  0  0  0  0  0  0  0  0  0
    3.0000    1.5000    0.0000 F   0  0  0  0  0  0  0  0  0  0  0  0
    4.5000    0.0000    0.0000 C   0  0  0  0  0  0  0  0  0  0  0  0
    4.5000    1.5000    0.0000 F   0  0  0  0  0  0  0  0  0  0  0  0
    4.5000   -1.5000    0.0000 F   0  0  0  0  0  0  0  0  0  0  0  0
    6.0000    0.0000    0.0000 C   0  0  0  0  0  0  0  0  0  0  0  0
    6.0000   -1.5000    0.0000 F   0  0  0  0  0  0  0  0  0  0  0  0
    6.0000    1.5000    0.0000 F   0  0  0  0  0  0  0  0  0  0  0  0
    7.5000    0.0000    0.0000 C   0  0  0  0  0  0  0  0  0  0  0  0
    7.5000    1.5000    0.0000 F   0  0  0  0  0  0  0  0  0  0  0  0
    7.5000   -1.5000    0.0000 F   0  0  0  0  0  0  0  0  0  0  0  0
    9.0000    0.0000    0.0000 C   0  0  0  0  0  0  0  0  0  0  0  0
    9.0000   -1.5000    0.0000 F   0  0  0  0  0  0  0  0  0  0  0  0
    9.0000    1.5000    0.0000 F   0  0  0  0  0  0  0  0  0  0  0  0
   10.5000    0.0000    0.0000 C   0  0  0  0  0  0  0  0  0  0  0  0
   10.5000   -1.5000    0.0000 F   0  0  0  0  0  0  0  0  0  0  0  0
   10.5000    1.5000    0.0000 F   0  0  0  0  0  0  0  0  0  0  0  0
   12.0000    0.0000    0.0000 C   0  0  0  0  0  0  0  0  0  0  0  0
   12.0000    1.5000    0.0000 F   0  0  0  0  0  0  0  0  0  0  0  0
   12.0000   -1.5000    0.0000 F   0  0  0  0  0  0  0  0  0  0  0  0
   13.5000    0.0000    0.0000 C   0  0  0  0  0  0  0  0  0  0  0  0
   13.5000   -1.5000    0.0000 F   0  0  0  0  0  0  0  0  0  0  0  0
   13.5000    1.5000    0.0000 F   0  0  0  0  0  0  0  0  0  0  0  0
   15.0000    0.0000    0.0000 C   0  0  0  0  0  0  0  0  0  0  0  0
   15.0000    1.5000    0.0000 F   0  0  0  0  0  0  0  0  0  0  0  0
   15.0000   -1.5000    0.0000 F   0  0  0  0  0  0  0  0  0  0  0  0
   16.5000    0.0000    0.0000 C   0  0  0  0  0  0  0  0  0  0  0  0
   16.5000   -1.5000    0.0000 F   0  0  0  0  0  0  0  0  0  0  0  0
   16.5000    1.5000    0.0000 F   0  0  0  0  0  0  0  0  0  0  0  0
   18.0000    0.0000    0.0000 C   0  0  0  0  0  0  0  0  0  0  0  0
   19.5000    0.0000    0.0000 F   0  0  0  0  0  0  0  0  0  0  0  0
   18.0000    1.5000    0.0000 F   0  0  0  0  0  0  0  0  0  0  0  0
   18.0000   -1.5000    0.0000 F   0  0  0  0  0  0  0  0  0  0  0  0
    0.0000    2.5000    0.0000 Na  0  0  0  0  0 15  0  0  0  0  0  0
  1  2  2  0
  2  3  2  0
  2  4  1  0
  2  5  1  0
  5  6  1  0
  5  7  1  0
  5  8  1  0
  8  9  1  0
  8 10  1  0
  8 11  1  0
 11 12  1  0
 11 13  1  0
 11 14  1  0
 14 15  1  0
 14 16  1  0
 14 17  1  0
 17 18  1  0
 17 19  1  0
 17 20  1  0
 20 21  1  0
 20 22  1  0
 20 23  1  0
 23 24  1  0
 23 25  1  0
 23 26  1  0
 26 27  1  0
 26 28  1  0
 26 29  1  0
 29 30  1  0
 29 31  1  0
 29 32  1  0
 32 33  1  0
 32 34  1  0
 32 35  1  0
 35 36  1  0
 35 37  1  0
 35 38  1  0
 38 39  1  0
 38 40  1  0
 38 41  1  0
 41 42  1  0
 41 43  1  0
 41 44  1  0
M  CHG  2   4  -1  45   1
M  END
$$$$

     RDKit          2D

 25 24  0  0  0  0  0  0  0  0999 V2000
   -0.0000   -1.5000    0.0000 O   0  0  0  0  0  0  0  0  0  0  0  0
    0.0000    0.0000    0.0000 C   0  0  0  0  0  0  0  0  0  0  0  0
   -1.2990    0.7500    0.0000 O   0  0  0  0  0  0  0  0  0  0  0  0
    1.2990    0.7500    0.0000 C   0  0  0  0  0  0  0  0  0  0  0  0
    2.0490   -0.5490    0.0000 F   0  0  0  0  0  0  0  0  0  0  0  0
    0.5490    2.0490    0.0000 F   0  0  0  0  0  0  0  0  0  0  0  0
    2.5981    1.5000    0.0000 C   0  0  0  0  0  0  0  0  0  0  0  0
    1.8481    2.7990    0.0000 F   0  0  0  0  0  0  0  0  0  0  0  0
    3.3481    0.2010    0.0000 F   0  0  0  0  0  0  0  0  0  0  0  0
    3.8971    2.2500    0.0000 O   0  0  0  0  0  0  0  0  0  0  0  0
    5.1962    1.5000    0.0000 C   0  0  0  0  0  0  0  0  0  0  0  0
    4.4462    0.2010    0.0000 F   0  0  0  0  0  0  0  0  0  0  0  0
    5.9462    2.7990    0.0000 F   0  0  0  0  0  0  0  0  0  0  0  0
    6.4952    0.7500    0.0000 C   0  0  0  0  0  0  0  0  0  0  0  0
    7.2452    2.0490    0.0000 F   0  0  0  0  0  0  0  0  0  0  0  0
    5.7452   -0.5490    0.0000 O   0  0  0  0  0  0  0  0  0  0  0  0
    6.4952   -1.8481    0.0000 C   0  0  0  0  0  0  0  0  0  0  0  0
    7.3809   -1.8481    0.0000 F   0  0  0  0  0  0  0  0  0  0  0  0
    5.7452   -3.1471    0.0000 C   0  0  0  0  0  0  0  0  0  0  0  0
    6.4952   -4.4462    0.0000 F   0  0  0  0  0  0  0  0  0  0  0  0
    4.2452   -3.1471    0.0000 F   0  0  0  0  0  0  0  0  0  0  0  0
    7.7942    0.0000    0.0000 C   0  0  0  0  0  0  0  0  0  0  0  0
    9.0933   -0.7500    0.0000 F   0  0  0  0  0  0  0  0  0  0  0  0
    7.5501   -0.8514    0.0000 F   0  0  0  0  0  0  0  0  0  0  0  0
    8.5442    1.2990    0.0000 F   0  0  0  0  0  0  0  0  0  0  0  0
  1  2  2  0
  2  3  1  0
  2  4  1  0
  4  5  1  0
  4  6  1  0
  4  7  1  0
  7  8  1  0
  7  9  1  0
  7 10  1  0
 10 11  1  0
 11 12  1  0
 11 13  1  0
 11 14  1  0
 14 15  1  0
 14 16  1  0
 16 17  1  0
 17 18  1  0
 17 19  2  0
 19 20  1  0
 19 21  1  0
 14 22  1  0
 22 23  1  0
 22 24  1  0
 22 25  1  0
M  END
$$$$

     RDKit          2D

 30 31  0  0  0  0  0  0  0  0999 V2000
    3.0000    0.0000    0.0000 C   0  0  0  0  0  0  0  0  0  0  0  0
    1.5000    0.0000    0.0000 C   0  0  0  0  0  0  0  0  0  0  0  0
    0.7500   -1.2990    0.0000 C   0  0  0  0  0  0  0  0  0  0  0  0
   -0.7500   -1.2990    0.0000 C   0  0  0  0  0  0  0  0  0  0  0  0
   -1.5000   -2.5981    0.0000 S   0  0  0  0  0  0  0  0  0  0  0  0
   -3.0000   -2.5981    0.0000 O   0  0  0  0  0  0  0  0  0  0  0  0
   -0.7500   -3.8971    0.0000 C   0  0  0  0  0  0  0  0  0  0  0  0
    0.5490   -3.1471    0.0000 F   0  0  0  0  0  0  0  0  0  0  0  0
   -0.0000   -5.1962    0.0000 F   0  0  0  0  0  0  0  0  0  0  0  0
   -2.0490   -4.6471    0.0000 C   0  0  0  0  0  0  0  0  0  0  0  0
   -2.0490   -6.1471    0.0000 F   0  0  0  0  0  0  0  0  0  0  0  0
   -3.3481   -3.8971    0.0000 F   0  0  0  0  0  0  0  0  0  0  0  0
   -1.5000    0.0000    0.0000 C   0  0  0  0  0  0  0  0  0  0  0  0
   -3.0000    0.0000    0.0000 C   0  0  0  0  0  0  0  0  0  0  0  0
   -0.7500    1.2990    0.0000 C   0  0  0  0  0  0  0  0  0  0  0  0
    0.7500    1.2990    0.0000 C   0  0  0  0  0  0  0  0  0  0  0  0
    1.5000    2.5981    0.0000 N   0  0  0  0  0  0  0  0  0  0  0  0
    0.7500    3.8971    0.0000 C   0  0  0  0  0  0  0  0  0  0  0  0
   -0.7500    3.8971    0.0000 O   0  0  0  0  0  0  0  0  0  0  0  0
    1.5000    5.1962    0.0000 N   0  0  0  0  0  0  0  0  0  0  0  0
    0.7500    6.4952    0.0000 C   0  0  0  0  0  0  0  0  0  0  0  0
   -0.7500    6.4952    0.0000 O   0  0  0  0  0  0  0  0  0  0  0  0
    1.5000    7.7942    0.0000 C   0  0  0  0  0  0  0  0  0  0  0  0
    3.0000    7.7942    0.0000 C   0  0  0  0  0  0  0  0  0  0  0  0
    3.7500    6.4952    0.0000 F   0  0  0  0  0  0  0  0  0  0  0  0
    3.7500    9.0933    0.0000 C   0  0  0  0  0  0  0  0  0  0  0  0
    3.0000   10.3923    0.0000 C   0  0  0  0  0  0  0  0  0  0  0  0
    1.5000   10.3923    0.0000 C   0  0  0  0  0  0  0  0  0  0  0  0
    0.7500    9.0933    0.0000 C   0  0  0  0  0  0  0  0  0  0  0  0
   -0.7500    9.0933    0.0000 F   0  0  0  0  0  0  0  0  0  0  0  0
  1  2  1  0
  2  3  2  0
  3  4  1  0
  4  5  1  0
  5  6  2  0
  5  7  1  0
  7  8  1  0
  7  9  1  0
  7 10  1  0
 10 11  1  0
 10 12  1  0
  4 13  2  0
 13 14  1  0
 13 15  1  0
 15 16  2  0
 16 17  1  0
 17 18  1  0
 18 19  2  0
 18 20  1  0
 20 21  2  3
 21 22  1  0
 21 23  1  0
 23 24  2  0
 24 25  1  0
 24 26  1  0
 26 27  2  0
 27 28  1  0
 28 29  2  0
 29 30  1  0
 16  2  1  0
 29 23  1  0
M  END
$$$$

     RDKit          2D

 22 22  0  0  0  0  0  0  0  0999 V2000
    3.7500    1.2990    0.0000 O   0  0  0  0  0  0  0  0  0  0  0  0
    3.0000    0.0000    0.0000 N   0  0  0  0  0  0  0  0  0  0  0  0
    3.7500   -1.2990    0.0000 O   0  0  0  0  0  0  0  0  0  0  0  0
    1.5000    0.0000    0.0000 C   0  0  0  0  0  0  0  0  0  0  0  0
    0.7500   -1.2990    0.0000 C   0  0  0  0  0  0  0  0  0  0  0  0
   -0.7500   -1.2990    0.0000 C   0  0  0  0  0  0  0  0  0  0  0  0
   -1.5000    0.0000    0.0000 C   0  0  0  0  0  0  0  0  0  0  0  0
   -0.7500    1.2990    0.0000 C   0  0  0  0  0  0  0  0  0  0  0  0
   -1.5000    2.5981    0.0000 C   0  0  0  0  0  0  0  0  0  0  0  0
   -3.0000    2.5981    0.0000 Cl  0  0  0  0  0  0  0  0  0  0  0  0
   -0.7500    3.8971    0.0000 C   0  0  0  0  0  0  0  0  0  0  0  0
   -1.5000    5.1962    0.0000 C   0  0  0  0  0  0  0  0  0  0  0  0
   -2.7990    4.4462    0.0000 O   0  0  0  0  0  0  0  0  0  0  0  0
   -2.2500    6.4952    0.0000 C   0  0  0  0  0  0  0  0  0  0  0  0
   -3.0000    7.7942    0.0000 F   0  0  0  0  0  0  0  0  0  0  0  0
   -3.5490    5.7452    0.0000 F   0  0  0  0  0  0  0  0  0  0  0  0
   -1.5426    7.0283    0.0000 F   0  0  0  0  0  0  0  0  0  0  0  0
   -0.2010    5.9462    0.0000 C   0  0  0  0  0  0  0  0  0  0  0  0
    1.0981    6.6962    0.0000 F   0  0  0  0  0  0  0  0  0  0  0  0
   -0.5470    6.7615    0.0000 F   0  0  0  0  0  0  0  0  0  0  0  0
    0.5490    4.6471    0.0000 F   0  0  0  0  0  0  0  0  0  0  0  0
    0.7500    1.2990    0.0000 C   0  0  0  0  0  0  0  0  0  0  0  0
  1  2  2  0
  2  3  1  0
  2  4  1  0
  4  5  2  0
  5  6  1  0
  6  7  2  0
  7  8  1  0
  8  9  1  0
  9 10  1  0
  9 11  1  0
 11 12  1  0
 12 13  1  0
 12 14  1  0
 14 15  1  0
 14 16  1  0
 14 17  1  0
 12 18  1  0
 18 19  1  0
 18 20  1  0
 18 21  1  0
  8 22  2  0
 22  4  1  0
M  CHG  2   2   1   3  -1
M  END
$$$$

     RDKit          2D

 19 19  0  0  0  0  0  0  0  0999 V2000
    3.7500    1.2990    0.0000 O   0  0  0  0  0  0  0  0  0  0  0  0
    3.0000    0.0000    0.0000 C   0  0  0  0  0  0  0  0  0  0  0  0
    3.7500   -1.2990    0.0000 C   0  0  0  0  0  0  0  0  0  0  0  0
    5.2500   -1.2990    0.0000 C   0  0  0  0  0  0  0  0  0  0  0  0
    6.0000   -2.5981    0.0000 C   0  0  0  0  0  0  0  0  0  0  0  0
    6.7500   -3.8971    0.0000 F   0  0  0  0  0  0  0  0  0  0  0  0
    7.2990   -1.8481    0.0000 F   0  0  0  0  0  0  0  0  0  0  0  0
    4.7010   -3.3481    0.0000 F   0  0  0  0  0  0  0  0  0  0  0  0
    6.0000    0.0000    0.0000 C   0  0  0  0  0  0  0  0  0  0  0  0
    6.7500    1.2990    0.0000 F   0  0  0  0  0  0  0  0  0  0  0  0
    7.2990   -0.7500    0.0000 F   0  0  0  0  0  0  0  0  0  0  0  0
    4.7010    0.7500    0.0000 F   0  0  0  0  0  0  0  0  0  0  0  0
    1.5000    0.0000    0.0000 C   0  0  0  0  0  0  0  0  0  0  0  0
    0.7500   -1.2990    0.0000 C   0  0  0  0  0  0  0  0  0  0  0  0
   -0.7500   -1.2990    0.0000 C   0  0  0  0  0  0  0  0  0  0  0  0
   -1.5000    0.0000    0.0000 C   0  0  0  0  0  0  0  0  0  0  0  0
   -0.7500    1.2990    0.0000 C   0  0  0  0  0  0  0  0  0  0  0  0
    0.7500    1.2990    0.0000 C   0  0  0  0  0  0  0  0  0  0  0  0
    1.5000    2.5981    0.0000 Cl  0  0  0  0  0  0  0  0  0  0  0  0
  1  2  1  0
  2  3  1  0
  3  4  2  0
  4  5  1  0
  5  6  1  0
  5  7  1  0
  5  8  1  0
  4  9  1  0
  9 10  1  0
  9 11  1  0
  9 12  1  0
  2 13  1  0
 13 14  2  0
 14 15  1  0
 15 16  2  0
 16 17  1  0
 17 18  2  0
 18 19  1  0
 18 13  1  0
M  END
$$$$

     RDKit          2D

 18 18  0  0  0  0  0  0  0  0999 V2000
    3.5260    1.2990    0.0000 O   0  0  0  0  0  0  0  0  0  0  0  0
    2.7760    0.0000    0.0000 C   0  0  0  0  0  0  0  0  0  0  0  0
    3.5260   -1.2990    0.0000 C   0  0  0  0  0  0  0  0  0  0  0  0
    5.0260   -1.2990    0.0000 C   0  0  0  0  0  0  0  0  0  0  0  0
    5.0260    0.2010    0.0000 O   0  0  0  0  0  0  0  0  0  0  0  0
    6.5260   -1.2990    0.0000 C   0  0  0  0  0  0  0  0  0  0  0  0
    8.0260   -1.2990    0.0000 F   0  0  0  0  0  0  0  0  0  0  0  0
    6.5260    0.2010    0.0000 F   0  0  0  0  0  0  0  0  0  0  0  0
    6.6339   -2.1782    0.0000 F   0  0  0  0  0  0  0  0  0  0  0  0
    5.0260   -2.7990    0.0000 C   0  0  0  0  0  0  0  0  0  0  0  0
    5.0260   -4.2990    0.0000 F   0  0  0  0  0  0  0  0  0  0  0  0
    5.9051   -2.9070    0.0000 F   0  0  0  0  0  0  0  0  0  0  0  0
    3.5260   -2.7990    0.0000 F   0  0  0  0  0  0  0  0  0  0  0  0
    1.2760    0.0000    0.0000 C   0  0  0  0  0  0  0  0  0  0  0  0
    0.3943    1.2135    0.0000 C   0  0  0  0  0  0  0  0  0  0  0  0
   -1.0323    0.7500    0.0000 C   0  0  0  0  0  0  0  0  0  0  0  0
   -1.0323   -0.7500    0.0000 C   0  0  0  0  0  0  0  0  0  0  0  0
    0.3943   -1.2135    0.0000 O   0  0  0  0  0  0  0  0  0  0  0  0
  1  2  1  0
  2  3  1  0
  3  4  1  0
  4  5  1  0
  4  6  1  0
  6  7  1  0
  6  8  1  0
  6  9  1  0
  4 10  1  0
 10 11  1  0
 10 12  1  0
 10 13  1  0
  2 14  1  0
 14 15  2  0
 15 16  1  0
 16 17  2  0
 17 18  1  0
 18 14  1  0
M  END
$$$$

     RDKit          2D

 23 23  0  0  0  0  0  0  0  0999 V2000
    3.0000    0.0000    0.0000 C   0  0  0  0  0  0  0  0  0  0  0  0
    1.5000    0.0000    0.0000 C   0  0  0  0  0  0  0  0  0  0  0  0
    0.7500   -1.2990    0.0000 C   0  0  0  0  0  0  0  0  0  0  0  0
   -0.7500   -1.2990    0.0000 C   0  0  0  0  0  0  0  0  0  0  0  0
   -0.4895   -2.7762    0.0000 C   0  0  0  0  0  0  0  0  0  0  0  0
   -0.2291   -4.2535    0.0000 F   0  0  0  0  0  0  0  0  0  0  0  0
   -1.2519   -3.0093    0.0000 F   0  0  0  0  0  0  0  0  0  0  0  0
    0.9877   -2.5158    0.0000 F   0  0  0  0  0  0  0  0  0  0  0  0
   -2.1595   -1.8121    0.0000 C   0  0  0  0  0  0  0  0  0  0  0  0
   -3.5691   -2.3251    0.0000 F   0  0  0  0  0  0  0  0  0  0  0  0
   -2.8406   -0.4756    0.0000 F   0  0  0  0  0  0  0  0  0  0  0  0
   -1.9802   -2.5888    0.0000 F   0  0  0  0  0  0  0  0  0  0  0  0
   -1.5000    0.0000    0.0000 O   0  0  0  0  0  0  0  0  0  0  0  0
   -0.7500    1.2990    0.0000 C   0  0  0  0  0  0  0  0  0  0  0  0
   -2.1595    1.8121    0.0000 C   0  0  0  0  0  0  0  0  0  0  0  0
   -3.5691    2.3251    0.0000 F   0  0  0  0  0  0  0  0  0  0  0  0
   -1.8222    3.2736    0.0000 F   0  0  0  0  0  0  0  0  0  0  0  0
   -2.8406    0.4756    0.0000 F   0  0  0  0  0  0  0  0  0  0  0  0
   -0.4895    2.7762    0.0000 C   0  0  0  0  0  0  0  0  0  0  0  0
   -0.2291    4.2535    0.0000 F   0  0  0  0  0  0  0  0  0  0  0  0
    0.9877    2.5158    0.0000 F   0  0  0  0  0  0  0  0  0  0  0  0
   -1.9240    3.2148    0.0000 F   0  0  0  0  0  0  0  0  0  0  0  0
    0.7500    1.2990    0.0000 O   0  0  0  0  0  0  0  0  0  0  0  0
  1  2  1  0
  2  3  1  0
  3  4  1  0
  4  5  1  0
  5  6  1  0
  5  7  1  0
  5  8  1  0
  4  9  1  0
  9 10  1  0
  9 11  1  0
  9 12  1  0
  4 13  1  0
 13 14  1  0
 14 15  1  0
 15 16  1  0
 15 17  1  0
 15 18  1  0
 14 19  1  0
 19 20  1  0
 19 21  1  0
 19 22  1  0
 14 23  1  0
 23  2  1  0
M  END
$$$$

     RDKit          2D

 17 18  0  0  0  0  0  0  0  0999 V2000
   -3.4140    0.4635    0.0000 O   0  0  0  0  0  0  0  0  0  0  0  0
   -1.9140    0.4635    0.0000 C   0  0  0  0  0  0  0  0  0  0  0  0
   -1.0323    1.6771    0.0000 C   0  0  0  0  0  0  0  0  0  0  0  0
   -1.4958    3.1036    0.0000 C   0  0  0  0  0  0  0  0  0  0  0  0
   -0.4921    4.2184    0.0000 C   0  0  0  0  0  0  0  0  0  0  0  0
    0.5116    5.3331    0.0000 F   0  0  0  0  0  0  0  0  0  0  0  0
   -1.6068    5.2220    0.0000 F   0  0  0  0  0  0  0  0  0  0  0  0
    0.6226    3.2147    0.0000 F   0  0  0  0  0  0  0  0  0  0  0  0
   -2.9630    3.4155    0.0000 C   0  0  0  0  0  0  0  0  0  0  0  0
   -4.4303    3.7274    0.0000 F   0  0  0  0  0  0  0  0  0  0  0  0
   -2.6512    4.8827    0.0000 F   0  0  0  0  0  0  0  0  0  0  0  0
   -3.2749    1.9483    0.0000 F   0  0  0  0  0  0  0  0  0  0  0  0
    0.3943    1.2135    0.0000 C   0  0  0  0  0  0  0  0  0  0  0  0
    1.2760    0.0000    0.0000 C   0  0  0  0  0  0  0  0  0  0  0  0
    0.3943   -1.2135    0.0000 C   0  0  0  0  0  0  0  0  0  0  0  0
   -1.0323   -0.7500    0.0000 C   0  0  0  0  0  0  0  0  0  0  0  0
   -1.0323    0.7500    0.0000 C   0  0  0  0  0  0  0  0  0  0  0  0
  1  2  1  0
  2  3  1  0
  3  4  2  0
  4  5  1  0
  5  6  1  0
  5  7  1  0
  5  8  1  0
  4  9  1  0
  9 10  1  0
  9 11  1  0
  9 12  1  0
  3 13  1  0
 13 14  1  0
 14 15  1  0
 15 16  1  0
 16 17  1  0
 16  2  1  0
 17 13  1  0
M  END
$$$$

     RDKit          2D

 21 22  0  0  0  0  0  0  0  0999 V2000
   -1.7455   -2.9392    0.0000 C   0  0  0  0  0  0  0  0  0  0  0  0
   -0.7418   -4.0539    0.0000 C   0  0  0  0  0  0  0  0  0  0  0  0
   -1.0537   -5.5211    0.0000 N   0  0  0  0  0  0  0  0  0  0  0  0
    0.2454   -6.2711    0.0000 C   0  0  0  0  0  0  0  0  0  0  0  0
    1.3601   -7.2748    0.0000 C   0  0  0  0  0  0  0  0  0  0  0  0
    2.4748   -8.2785    0.0000 F   0  0  0  0  0  0  0  0  0  0  0  0
    2.3638   -6.1601    0.0000 F   0  0  0  0  0  0  0  0  0  0  0  0
    0.9029   -7.9278    0.0000 F   0  0  0  0  0  0  0  0  0  0  0  0
   -0.6363   -7.4847    0.0000 C   0  0  0  0  0  0  0  0  0  0  0  0
   -1.5180   -8.6982    0.0000 F   0  0  0  0  0  0  0  0  0  0  0  0
   -0.0533   -8.0283    0.0000 F   0  0  0  0  0  0  0  0  0  0  0  0
   -1.8498   -6.6030    0.0000 F   0  0  0  0  0  0  0  0  0  0  0  0
    1.3601   -5.2674    0.0000 O   0  0  0  0  0  0  0  0  0  0  0  0
    0.7500   -3.8971    0.0000 C   0  0  0  0  0  0  0  0  0  0  0  0
    1.5000   -2.5981    0.0000 C   0  0  0  0  0  0  0  0  0  0  0  0
    0.7500   -1.2990    0.0000 C   0  0  0  0  0  0  0  0  0  0  0  0
    1.5000    0.0000    0.0000 C   0  0  0  0  0  0  0  0  0  0  0  0
    0.7500    1.2990    0.0000 C   0  0  0  0  0  0  0  0  0  0  0  0
   -0.7500    1.2990    0.0000 C   0  0  0  0  0  0  0  0  0  0  0  0
   -1.5000    0.0000    0.0000 C   0  0  0  0  0  0  0  0  0  0  0  0
   -0.7500   -1.2990    0.0000 C   0  0  0  0  0  0  0  0  0  0  0  0
  1  2  1  0
  2  3  1  0
  3  4  1  0
  4  5  1  0
  5  6  1  0
  5  7  1  0
  5  8  1  0
  4  9  1  0
  9 10  1  0
  9 11  1  0
  9 12  1  0
  4 13  1  0
 13 14  1  0
 14 15  1  0
 15 16  1  0
 16 17  2  0
 17 18  1  0
 18 19  2  0
 19 20  1  0
 20 21  2  0
 14  2  1  0
 21 16  1  0
M  END
$$$$

     RDKit          2D

 21 21  0  0  0  0  0  0  0  0999 V2000
    3.0000    0.0000    0.0000 C   0  0  0  0  0  0  0  0  0  0  0  0
    1.5000    0.0000    0.0000 C   0  0  0  0  0  0  0  0  0  0  0  0
    0.7500   -1.2990    0.0000 C   0  0  0  0  0  0  0  0  0  0  0  0
   -0.7500   -1.2990    0.0000 C   0  0  0  0  0  0  0  0  0  0  0  0
   -1.5000    0.0000    0.0000 C   0  0  0  0  0  0  0  0  0  0  0  0
   -3.0000    0.0000    0.0000 C   0  0  0  0  0  0  0  0  0  0  0  0
   -3.0000   -1.5000    0.0000 C   0  0  0  0  0  0  0  0  0  0  0  0
   -4.5000    0.0000    0.0000 O   0  0  0  0  0  0  0  0  0  0  0  0
   -3.0000    1.5000    0.0000 C   0  0  0  0  0  0  0  0  0  0  0  0
   -4.2990    2.2500    0.0000 C   0  0  0  0  0  0  0  0  0  0  0  0
   -5.0490    0.9510    0.0000 O   0  0  0  0  0  0  0  0  0  0  0  0
   -5.5981    3.0000    0.0000 C   0  0  0  0  0  0  0  0  0  0  0  0
   -6.8971    3.7500    0.0000 F   0  0  0  0  0  0  0  0  0  0  0  0
   -6.3481    1.7010    0.0000 F   0  0  0  0  0  0  0  0  0  0  0  0
   -5.2520    3.8153    0.0000 F   0  0  0  0  0  0  0  0  0  0  0  0
   -3.5490    3.5490    0.0000 C   0  0  0  0  0  0  0  0  0  0  0  0
   -2.7990    4.8481    0.0000 F   0  0  0  0  0  0  0  0  0  0  0  0
   -4.2564    4.0821    0.0000 F   0  0  0  0  0  0  0  0  0  0  0  0
   -2.2500    2.7990    0.0000 F   0  0  0  0  0  0  0  0  0  0  0  0
   -0.7500    1.2990    0.0000 C   0  0  0  0  0  0  0  0  0  0  0  0
    0.7500    1.2990    0.0000 C   0  0  0  0  0  0  0  0  0  0  0  0
  1  2  1  0
  2  3  2  0
  3  4  1  0
  4  5  2  0
  5  6  1  0
  6  7  1  0
  6  8  1  0
  6  9  1  0
  9 10  1  0
 10 11  1  0
 10 12  1  0
 12 13  1  0
 12 14  1  0
 12 15  1  0
 10 16  1  0
 16 17  1  0
 16 18  1  0
 16 19  1  0
  5 20  1  0
 20 21  2  0
 21  2  1  0
M  END
$$$$

     RDKit          2D

 20 20  0  0  0  0  0  0  0  0999 V2000
    3.0000   -1.5000    0.0000 C   0  0  0  0  0  0  0  0  0  0  0  0
    3.0000    0.0000    0.0000 C   0  0  0  0  0  0  0  0  0  0  0  0
    3.0000    1.5000    0.0000 C   0  0  0  0  0  0  0  0  0  0  0  0
    4.5000    0.0000    0.0000 C   0  0  0  0  0  0  0  0  0  0  0  0
    1.5000    0.0000    0.0000 C   0  0  0  0  0  0  0  0  0  0  0  0
    0.7500   -1.2990    0.0000 C   0  0  0  0  0  0  0  0  0  0  0  0
   -0.7500   -1.2990    0.0000 C   0  0  0  0  0  0  0  0  0  0  0  0
   -0.4895   -2.7762    0.0000 C   0  0  0  0  0  0  0  0  0  0  0  0
   -0.2291   -4.2535    0.0000 F   0  0  0  0  0  0  0  0  0  0  0  0
   -1.2519   -3.0093    0.0000 F   0  0  0  0  0  0  0  0  0  0  0  0
    0.9877   -2.5158    0.0000 F   0  0  0  0  0  0  0  0  0  0  0  0
   -2.1595   -1.8121    0.0000 C   0  0  0  0  0  0  0  0  0  0  0  0
   -3.5691   -2.3251    0.0000 F   0  0  0  0  0  0  0  0  0  0  0  0
   -2.6726   -0.4025    0.0000 F   0  0  0  0  0  0  0  0  0  0  0  0
   -1.9802   -2.5888    0.0000 F   0  0  0  0  0  0  0  0  0  0  0  0
   -1.5000    0.0000    0.0000 O   0  0  0  0  0  0  0  0  0  0  0  0
   -0.7500    1.2990    0.0000 P   0  0  0  0  0  0  0  0  0  0  0  0
   -2.1595    1.8121    0.0000 O   0  0  0  0  0  0  0  0  0  0  0  0
   -0.4895    2.7762    0.0000 Cl  0  0  0  0  0  0  0  0  0  0  0  0
    0.7500    1.2990    0.0000 O   0  0  0  0  0  0  0  0  0  0  0  0
  1  2  1  0
  2  3  1  0
  2  4  1  0
  2  5  1  0
  5  6  1  0
  6  7  1  0
  7  8  1  0
  8  9  1  0
  8 10  1  0
  8 11  1  0
  7 12  1  0
 12 13  1  0
 12 14  1  0
 12 15  1  0
  7 16  1  0
 16 17  1  0
 17 18  2  0
 17 19  1  0
 17 20  1  0
 20  5  1  0
M  END
$$$$

     RDKit          2D

 13 13  0  0  0  0  0  0  0  0999 V2000
    2.5607    0.0000    0.0000 F   0  0  0  0  0  0  0  0  0  0  0  0
    1.0607    0.0000    0.0000 C   0  0  0  0  0  0  0  0  0  0  0  0
   -0.0000   -1.0607    0.0000 C   0  0  0  0  0  0  0  0  0  0  0  0
   -0.0000   -2.5607    0.0000 F   0  0  0  0  0  0  0  0  0  0  0  0
   -1.0607    0.0000    0.0000 C   0  0  0  0  0  0  0  0  0  0  0  0
   -2.1213    1.0607    0.0000 F   0  0  0  0  0  0  0  0  0  0  0  0
   -2.1213   -1.0607    0.0000 C   0  0  0  0  0  0  0  0  0  0  0  0
   -3.1820   -2.1213    0.0000 F   0  0  0  0  0  0  0  0  0  0  0  0
   -3.1820    0.0000    0.0000 F   0  0  0  0  0  0  0  0  0  0  0  0
   -1.0607   -2.1213    0.0000 F   0  0  0  0  0  0  0  0  0  0  0  0
    0.0000    1.0607    0.0000 C   0  0  0  0  0  0  0  0  0  0  0  0
   -1.0607    2.1213    0.0000 F   0  0  0  0  0  0  0  0  0  0  0  0
    1.0607    2.1213    0.0000 F   0  0  0  0  0  0  0  0  0  0  0  0
  1  2  1  0
  2  3  2  0
  3  4  1  0
  3  5  1  0
  5  6  1  0
  5  7  1  0
  7  8  1  0
  7  9  1  0
  7 10  1  0
  5 11  1  0
 11 12  1  0
 11 13  1  0
 11  2  1  0
M  END
$$$$

     RDKit          2D

 21 21  0  0  0  0  0  0  0  0999 V2000
    5.3660   -2.5981    0.0000 C   0  0  0  0  0  0  0  0  0  0  0  0
    4.6160   -1.2990    0.0000 C   0  0  0  0  0  0  0  0  0  0  0  0
    3.1160   -1.2990    0.0000 O   0  0  0  0  0  0  0  0  0  0  0  0
    2.3660    0.0000    0.0000 C   0  0  0  0  0  0  0  0  0  0  0  0
    3.1160    1.2990    0.0000 O   0  0  0  0  0  0  0  0  0  0  0  0
    0.8660    0.0000    0.0000 C   0  0  0  0  0  0  0  0  0  0  0  0
   -0.4330    0.7500    0.0000 C   0  0  0  0  0  0  0  0  0  0  0  0
   -1.1830    2.0490    0.0000 C   0  0  0  0  0  0  0  0  0  0  0  0
   -2.6830    2.0490    0.0000 Cl  0  0  0  0  0  0  0  0  0  0  0  0
   -0.4330    3.3481    0.0000 C   0  0  0  0  0  0  0  0  0  0  0  0
   -1.1830    4.6471    0.0000 C   0  0  0  0  0  0  0  0  0  0  0  0
    1.0670    3.3481    0.0000 C   0  0  0  0  0  0  0  0  0  0  0  0
   -0.4330   -0.7500    0.0000 C   0  0  0  0  0  0  0  0  0  0  0  0
    0.0800   -2.1595    0.0000 C   0  0  0  0  0  0  0  0  0  0  0  0
    0.5930   -3.5691    0.0000 F   0  0  0  0  0  0  0  0  0  0  0  0
   -1.0025   -2.7112    0.0000 F   0  0  0  0  0  0  0  0  0  0  0  0
    1.4896   -1.6465    0.0000 F   0  0  0  0  0  0  0  0  0  0  0  0
   -1.9102   -1.0105    0.0000 C   0  0  0  0  0  0  0  0  0  0  0  0
   -3.3874   -1.2709    0.0000 F   0  0  0  0  0  0  0  0  0  0  0  0
   -2.1707    0.4667    0.0000 F   0  0  0  0  0  0  0  0  0  0  0  0
   -1.8467   -2.2238    0.0000 F   0  0  0  0  0  0  0  0  0  0  0  0
  1  2  1  0
  2  3  1  0
  3  4  1  0
  4  5  2  0
  4  6  1  0
  6  7  1  0
  7  8  1  0
  8  9  1  0
  8 10  1  0
 10 11  1  0
 10 12  1  0
  7 13  1  0
 13 14  1  0
 14 15  1  0
 14 16  1  0
 14 17  1  0
 13 18  1  0
 18 19  1  0
 18 20  1  0
 18 21  1  0
 13  6  1  0
M  END
$$$$

     RDKit          2D

 20 21  0  0  0  0  0  0  0  0999 V2000
   -3.1586   -1.9635    0.0000 C   0  0  0  0  0  0  0  0  0  0  0  0
   -1.8596   -1.2135    0.0000 C   0  0  0  0  0  0  0  0  0  0  0  0
   -1.2495   -2.5838    0.0000 C   0  0  0  0  0  0  0  0  0  0  0  0
   -2.7413    0.0000    0.0000 C   0  0  0  0  0  0  0  0  0  0  0  0
   -1.8596    1.2135    0.0000 C   0  0  0  0  0  0  0  0  0  0  0  0
   -1.2495    2.5838    0.0000 C   0  0  0  0  0  0  0  0  0  0  0  0
   -0.6394    3.9542    0.0000 F   0  0  0  0  0  0  0  0  0  0  0  0
    0.1208    1.9737    0.0000 F   0  0  0  0  0  0  0  0  0  0  0  0
   -1.9328    2.9944    0.0000 F   0  0  0  0  0  0  0  0  0  0  0  0
   -3.1586    1.9635    0.0000 C   0  0  0  0  0  0  0  0  0  0  0  0
   -4.4577    2.7135    0.0000 F   0  0  0  0  0  0  0  0  0  0  0  0
   -2.8472    2.6973    0.0000 F   0  0  0  0  0  0  0  0  0  0  0  0
   -3.9086    0.6645    0.0000 F   0  0  0  0  0  0  0  0  0  0  0  0
   -0.4330    0.7500    0.0000 N   0  0  0  0  0  0  0  0  0  0  0  0
    0.8660    0.0000    0.0000 N   0  0  0  0  0  0  0  0  0  0  0  0
    2.3660    0.0000    0.0000 C   0  0  0  0  0  0  0  0  0  0  0  0
    3.8660    0.0000    0.0000 F   0  0  0  0  0  0  0  0  0  0  0  0
    2.3660   -1.5000    0.0000 F   0  0  0  0  0  0  0  0  0  0  0  0
    2.3660    1.5000    0.0000 F   0  0  0  0  0  0  0  0  0  0  0  0
   -0.4330   -0.7500    0.0000 N   0  0  0  0  0  0  0  0  0  0  0  0
  1  2  1  0
  2  3  1  0
  2  4  1  0
  4  5  1  0
  5  6  1  0
  6  7  1  0
  6  8  1  0
  6  9  1  0
  5 10  1  0
 10 11  1  0
 10 12  1  0
 10 13  1  0
  5 14  1  0
 14 15  1  0
 15 16  1  0
 16 17  1  0
 16 18  1  0
 16 19  1  0
 15 20  1  0
 20  2  1  0
 20 14  1  0
M  END
$$$$

     RDKit          2D

 61 67  0  0  0  0  0  0  0  0999 V2000
   -6.0000   -5.1962    0.0000 N   0  0  0  0  0  0  0  0  0  0  0  0
   -5.2500   -3.8971    0.0000 C   0  0  0  0  0  0  0  0  0  0  0  0
   -3.7500   -3.8971    0.0000 C   0  0  0  0  0  0  0  0  0  0  0  0
   -3.0000   -2.5981    0.0000 C   0  0  0  0  0  0  0  0  0  0  0  0
   -3.7500   -1.2990    0.0000 C   0  0  0  0  0  0  0  0  0  0  0  0
   -3.0000    0.0000    0.0000 O   0  0  0  0  0  0  0  0  0  0  0  0
   -3.7500    1.2990    0.0000 C   0  0  0  0  0  0  0  0  0  0  0  0
   -5.2500    1.2990    0.0000 C   0  0  0  0  0  0  0  0  0  0  0  0
   -6.0000    2.5981    0.0000 C   0  0  0  0  0  0  0  0  0  0  0  0
   -5.2500    3.8971    0.0000 C   0  0  0  0  0  0  0  0  0  0  0  0
   -6.0000    5.1962    0.0000 C   0  0  0  0  0  0  0  0  0  0  0  0
   -6.7500    6.4952    0.0000 C   0  0  0  0  0  0  0  0  0  0  0  0
   -6.0000    7.7942    0.0000 C   0  0  0  0  0  0  0  0  0  0  0  0
   -6.7500    9.0933    0.0000 C   0  0  0  0  0  0  0  0  0  0  0  0
   -8.2500    9.0933    0.0000 C   0  0  0  0  0  0  0  0  0  0  0  0
   -9.0000   10.3923    0.0000 O   0  0  0  0  0  0  0  0  0  0  0  0
   -8.2500   11.6913    0.0000 C   0  0  0  0  0  0  0  0  0  0  0  0
   -6.7500   11.6913    0.0000 C   0  0  0  0  0  0  0  0  0  0  0  0
   -6.0000   12.9904    0.0000 C   0  0  0  0  0  0  0  0  0  0  0  0
   -6.7500   14.2894    0.0000 C   0  0  0  0  0  0  0  0  0  0  0  0
   -6.0000   15.5885    0.0000 N   0  0  0  0  0  0  0  0  0  0  0  0
   -8.2500   14.2894    0.0000 C   0  0  0  0  0  0  0  0  0  0  0  0
   -9.0000   12.9904    0.0000 C   0  0  0  0  0  0  0  0  0  0  0  0
   -9.0000    7.7942    0.0000 C   0  0  0  0  0  0  0  0  0  0  0  0
   -8.2500    6.4952    0.0000 C   0  0  0  0  0  0  0  0  0  0  0  0
   -4.7010    5.9462    0.0000 C   0  0  0  0  0  0  0  0  0  0  0  0
   -3.4019    6.6962    0.0000 F   0  0  0  0  0  0  0  0  0  0  0  0
   -3.6589    4.8672    0.0000 F   0  0  0  0  0  0  0  0  0  0  0  0
   -5.1143    7.3881    0.0000 F   0  0  0  0  0  0  0  0  0  0  0  0
   -7.2990    4.4462    0.0000 C   0  0  0  0  0  0  0  0  0  0  0  0
   -8.5981    3.6962    0.0000 F   0  0  0  0  0  0  0  0  0  0  0  0
   -8.3411    5.5251    0.0000 F   0  0  0  0  0  0  0  0  0  0  0  0
   -6.8857    3.0042    0.0000 F   0  0  0  0  0  0  0  0  0  0  0  0
   -3.7500    3.8971    0.0000 C   0  0  0  0  0  0  0  0  0  0  0  0
   -3.0000    2.5981    0.0000 C   0  0  0  0  0  0  0  0  0  0  0  0
   -5.2500   -1.2990    0.0000 C   0  0  0  0  0  0  0  0  0  0  0  0
   -6.0000   -2.5981    0.0000 C   0  0  0  0  0  0  0  0  0  0  0  0
    5.0819   -2.5981    0.0000 O   0  0  0  0  0  0  0  0  0  0  0  0
    3.5819   -2.5981    0.0000 C   0  0  0  0  0  0  0  0  0  0  0  0
    2.8319   -1.2990    0.0000 C   0  0  0  0  0  0  0  0  0  0  0  0
    3.5819    0.0000    0.0000 C   0  0  0  0  0  0  0  0  0  0  0  0
    2.8319    1.2990    0.0000 C   0  0  0  0  0  0  0  0  0  0  0  0
    1.3319    1.2990    0.0000 C   0  0  0  0  0  0  0  0  0  0  0  0
    0.5819    0.0000    0.0000 C   0  0  0  0  0  0  0  0  0  0  0  0
    1.3319   -1.2990    0.0000 C   0  0  0  0  0  0  0  0  0  0  0  0
   -0.8853    0.3119    0.0000 C   0  0  0  0  0  0  0  0  0  0  0  0
   -2.0000   -0.6918    0.0000 O   0  0  0  0  0  0  0  0  0  0  0  0
   -1.0421    1.8037    0.0000 O   0  0  0  0  0  0  0  0  0  0  0  0
    0.3282    2.4138    0.0000 C   0  0  0  0  0  0  0  0  0  0  0  0
    0.6401    3.8810    0.0000 O   0  0  0  0  0  0  0  0  0  0  0  0
    2.8319   -3.8971    0.0000 C   0  0  0  0  0  0  0  0  0  0  0  0
    1.3319   -3.8971    0.0000 C   0  0  0  0  0  0  0  0  0  0  0  0
    0.5819   -5.1962    0.0000 C   0  0  0  0  0  0  0  0  0  0  0  0
    1.3319   -6.4952    0.0000 C   0  0  0  0  0  0  0  0  0  0  0  0
    2.8319   -6.4952    0.0000 C   0  0  0  0  0  0  0  0  0  0  0  0
    3.5819   -5.1962    0.0000 C   0  0  0  0  0  0  0  0  0  0  0  0
    3.2955   -7.9218    0.0000 C   0  0  0  0  0  0  0  0  0  0  0  0
    4.7220   -8.3853    0.0000 O   0  0  0  0  0  0  0  0  0  0  0  0
    2.0819   -8.8035    0.0000 O   0  0  0  0  0  0  0  0  0  0  0  0
    0.8684   -7.9218    0.0000 C   0  0  0  0  0  0  0  0  0  0  0  0
   -0.5582   -8.3853    0.0000 O   0  0  0  0  0  0  0  0  0  0  0  0
  1  2  1  0
  2  3  2  0
  3  4  1  0
  4  5  2  0
  5  6  1  0
  6  7  1  0
  7  8  2  0
  8  9  1  0
  9 10  2  0
 10 11  1  0
 11 12  1  0
 12 13  2  0
 13 14  1  0
 14 15  2  0
 15 16  1  0
 16 17  1  0
 17 18  2  0
 18 19  1  0
 19 20  2  0
 20 21  1  0
 20 22  1  0
 22 23  2  0
 15 24  1  0
 24 25  2  0
 11 26  1  0
 26 27  1  0
 26 28  1  0
 26 29  1  0
 11 30  1  0
 30 31  1  0
 30 32  1  0
 30 33  1  0
 10 34  1  0
 34 35  2  0
  5 36  1  0
 36 37  2  0
 38 39  2  0
 39 40  1  0
 40 41  2  0
 41 42  1  0
 42 43  2  0
 43 44  1  0
 44 45  2  0
 44 46  1  0
 46 47  2  0
 46 48  1  0
 48 49  1  0
 49 50  2  0
 39 51  1  0
 51 52  2  0
 52 53  1  0
 53 54  2  0
 54 55  1  0
 55 56  2  0
 55 57  1  0
 57 58  2  0
 57 59  1  0
 59 60  1  0
 60 61  2  0
 37  2  1  0
 45 40  1  0
 56 51  1  0
 35  7  1  0
 49 43  1  0
 60 54  1  0
 25 12  1  0
 23 17  1  0
M  END
$$$$

     RDKit          2D

 23 22  0  0  0  0  0  0  0  0999 V2000
    0.0000    0.0000    0.0000 C   0  0  0  0  0  0  0  0  0  0  0  0
    1.2990    0.7500    0.0000 C   0  0  0  0  0  0  0  0  0  0  0  0
    2.5981   -0.0000    0.0000 C   0  0  0  0  0  0  0  0  0  0  0  0
    3.8971    0.7500    0.0000 C   0  0  0  0  0  0  0  0  0  0  0  0
    5.1962   -0.0000    0.0000 O   0  0  0  0  0  0  0  0  0  0  0  0
    6.4952    0.7500    0.0000 P   0  0  0  0  0  0  0  0  0  0  0  0
    7.2452   -0.5490    0.0000 C   0  0  0  0  0  0  0  0  0  0  0  0
    7.2290    1.0615    0.0000 O   0  0  0  0  0  0  0  0  0  0  0  0
    5.7452    2.0490    0.0000 C   0  0  0  0  0  0  0  0  0  0  0  0
    4.9952    3.3481    0.0000 N   0  0  0  0  0  0  0  0  0  0  0  0
    5.7452    4.6471    0.0000 C   0  0  0  0  0  0  0  0  0  0  0  0
    4.9952    5.9462    0.0000 O   0  0  0  0  0  0  0  0  0  0  0  0
    7.2452    4.6471    0.0000 O   0  0  0  0  0  0  0  0  0  0  0  0
    7.9952    5.9462    0.0000 C   0  0  0  0  0  0  0  0  0  0  0  0
    9.4952    5.9462    0.0000 C   0  0  0  0  0  0  0  0  0  0  0  0
    7.0442    2.7990    0.0000 C   0  0  0  0  0  0  0  0  0  0  0  0
    8.3433    3.5490    0.0000 F   0  0  0  0  0  0  0  0  0  0  0  0
    6.7429    3.8502    0.0000 F   0  0  0  0  0  0  0  0  0  0  0  0
    7.5773    2.0917    0.0000 F   0  0  0  0  0  0  0  0  0  0  0  0
    4.4462    1.2990    0.0000 C   0  0  0  0  0  0  0  0  0  0  0  0
    2.9471    1.2469    0.0000 F   0  0  0  0  0  0  0  0  0  0  0  0
    3.6962    2.5981    0.0000 F   0  0  0  0  0  0  0  0  0  0  0  0
    4.8595   -0.1429    0.0000 F   0  0  0  0  0  0  0  0  0  0  0  0
  1  2  1  0
  2  3  1  0
  3  4  1  0
  4  5  1  0
  5  6  1  0
  6  7  1  0
  6  8  2  0
  6  9  1  0
  9 10  1  0
 10 11  2  3
 11 12  1  0
 11 13  1  0
 13 14  1  0
 14 15  1  0
  9 16  1  0
 16 17  1  0
 16 18  1  0
 16 19  1  0
  9 20  1  0
 20 21  1  0
 20 22  1  0
 20 23  1  0
M  END
$$$$

     RDKit          2D

 18 18  0  0  0  0  0  0  0  0999 V2000
    3.7500    1.2990    0.0000 O   0  0  0  0  0  0  0  0  0  0  0  0
    3.0000    0.0000    0.0000 C   0  0  0  0  0  0  0  0  0  0  0  0
    3.7500   -1.2990    0.0000 O   0  0  0  0  0  0  0  0  0  0  0  0
    5.2500   -1.2990    0.0000 C   0  0  0  0  0  0  0  0  0  0  0  0
    6.0000   -2.5981    0.0000 C   0  0  0  0  0  0  0  0  0  0  0  0
    6.7500   -3.8971    0.0000 F   0  0  0  0  0  0  0  0  0  0  0  0
    7.2990   -1.8481    0.0000 F   0  0  0  0  0  0  0  0  0  0  0  0
    4.7010   -3.3481    0.0000 F   0  0  0  0  0  0  0  0  0  0  0  0
    6.0000    0.0000    0.0000 C   0  0  0  0  0  0  0  0  0  0  0  0
    6.7500    1.2990    0.0000 F   0  0  0  0  0  0  0  0  0  0  0  0
    7.2990   -0.7500    0.0000 F   0  0  0  0  0  0  0  0  0  0  0  0
    4.7010    0.7500    0.0000 F   0  0  0  0  0  0  0  0  0  0  0  0
    1.5000    0.0000    0.0000 C   0  0  0  0  0  0  0  0  0  0  0  0
    0.7500   -1.2990    0.0000 C   0  0  0  0  0  0  0  0  0  0  0  0
   -0.7500   -1.2990    0.0000 N   0  0  0  0  0  0  0  0  0  0  0  0
   -1.5000    0.0000    0.0000 C   0  0  0  0  0  0  0  0  0  0  0  0
   -0.7500    1.2990    0.0000 C   0  0  0  0  0  0  0  0  0  0  0  0
    0.7500    1.2990    0.0000 N   0  0  0  0  0  0  0  0  0  0  0  0
  1  2  2  0
  2  3  1  0
  3  4  1  0
  4  5  1  0
  5  6  1  0
  5  7  1  0
  5  8  1  0
  4  9  1  0
  9 10  1  0
  9 11  1  0
  9 12  1  0
  2 13  1  0
 13 14  2  0
 14 15  1  0
 15 16  2  0
 16 17  1  0
 17 18  2  0
 18 13  1  0
M  END
$$$$

     RDKit          2D

 28 29  0  0  0  0  0  0  0  0999 V2000
    2.7760    0.0000    0.0000 C   0  0  0  0  0  0  0  0  0  0  0  0
    1.2760    0.0000    0.0000 N   0  0  0  0  0  0  0  0  0  0  0  0
    0.3943    1.2135    0.0000 C   0  0  0  0  0  0  0  0  0  0  0  0
   -1.0323    0.7500    0.0000 C   0  0  0  0  0  0  0  0  0  0  0  0
   -2.2458    1.6317    0.0000 C   0  0  0  0  0  0  0  0  0  0  0  0
   -1.3641    2.8452    0.0000 F   0  0  0  0  0  0  0  0  0  0  0  0
   -3.1275    0.4182    0.0000 F   0  0  0  0  0  0  0  0  0  0  0  0
   -3.4593    2.5134    0.0000 C   0  0  0  0  0  0  0  0  0  0  0  0
   -4.6729    3.3950    0.0000 F   0  0  0  0  0  0  0  0  0  0  0  0
   -4.3410    1.2998    0.0000 F   0  0  0  0  0  0  0  0  0  0  0  0
   -2.5777    3.7269    0.0000 F   0  0  0  0  0  0  0  0  0  0  0  0
   -1.0323   -0.7500    0.0000 N   0  0  0  0  0  0  0  0  0  0  0  0
    0.3943   -1.2135    0.0000 C   0  0  0  0  0  0  0  0  0  0  0  0
    0.8578   -2.6401    0.0000 C   0  0  0  0  0  0  0  0  0  0  0  0
   -0.1459   -3.7548    0.0000 C   0  0  0  0  0  0  0  0  0  0  0  0
    0.3177   -5.1814    0.0000 C   0  0  0  0  0  0  0  0  0  0  0  0
    1.7442   -5.6449    0.0000 N   0  0  0  0  0  0  0  0  0  0  0  0
    1.7442   -7.1449    0.0000 C   0  0  0  0  0  0  0  0  0  0  0  0
    0.3177   -7.6085    0.0000 C   0  0  0  0  0  0  0  0  0  0  0  0
   -0.1459   -9.0350    0.0000 C   0  0  0  0  0  0  0  0  0  0  0  0
   -1.5725   -8.5715    0.0000 F   0  0  0  0  0  0  0  0  0  0  0  0
    1.2807   -9.4986    0.0000 F   0  0  0  0  0  0  0  0  0  0  0  0
   -0.6094  -10.4616    0.0000 C   0  0  0  0  0  0  0  0  0  0  0  0
   -1.0729  -11.8882    0.0000 F   0  0  0  0  0  0  0  0  0  0  0  0
    0.8172  -10.9252    0.0000 F   0  0  0  0  0  0  0  0  0  0  0  0
   -2.0360   -9.9981    0.0000 F   0  0  0  0  0  0  0  0  0  0  0  0
   -0.5640   -6.3949    0.0000 N   0  0  0  0  0  0  0  0  0  0  0  0
   -2.0640   -6.3949    0.0000 C   0  0  0  0  0  0  0  0  0  0  0  0
  1  2  1  0
  2  3  1  0
  3  4  2  0
  4  5  1  0
  5  6  1  0
  5  7  1  0
  5  8  1  0
  8  9  1  0
  8 10  1  0
  8 11  1  0
  4 12  1  0
 12 13  2  0
 13 14  1  0
 14 15  2  3
 15 16  1  0
 16 17  2  0
 17 18  1  0
 18 19  2  0
 19 20  1  0
 20 21  1  0
 20 22  1  0
 20 23  1  0
 23 24  1  0
 23 25  1  0
 23 26  1  0
 19 27  1  0
 27 28  1  0
 13  2  1  0
 27 16  1  0
M  END
$$$$

     RDKit          2D

 14 14  0  0  0  0  0  0  0  0999 V2000
    4.6309   -1.7331    0.0000 C   0  0  0  0  0  0  0  0  0  0  0  0
    3.5702   -0.6724    0.0000 C   0  0  0  0  0  0  0  0  0  0  0  0
    2.1213   -1.0607    0.0000 O   0  0  0  0  0  0  0  0  0  0  0  0
    1.0607    0.0000    0.0000 C   0  0  0  0  0  0  0  0  0  0  0  0
    2.1213    1.0607    0.0000 O   0  0  0  0  0  0  0  0  0  0  0  0
   -0.0000   -1.0607    0.0000 C   0  0  0  0  0  0  0  0  0  0  0  0
    1.0607   -2.1213    0.0000 C   0  0  0  0  0  0  0  0  0  0  0  0
   -1.0607   -2.1213    0.0000 C   0  0  0  0  0  0  0  0  0  0  0  0
   -1.0607    0.0000    0.0000 C   0  0  0  0  0  0  0  0  0  0  0  0
   -2.1213   -1.0607    0.0000 F   0  0  0  0  0  0  0  0  0  0  0  0
   -2.1213    1.0607    0.0000 F   0  0  0  0  0  0  0  0  0  0  0  0
    0.0000    1.0607    0.0000 C   0  0  0  0  0  0  0  0  0  0  0  0
   -1.0607    2.1213    0.0000 F   0  0  0  0  0  0  0  0  0  0  0  0
    1.0607    2.1213    0.0000 F   0  0  0  0  0  0  0  0  0  0  0  0
  1  2  1  0
  2  3  1  0
  3  4  1  0
  4  5  1  0
  4  6  1  0
  6  7  1  0
  6  8  1  0
  6  9  1  0
  9 10  1  0
  9 11  1  0
  9 12  1  0
 12 13  1  0
 12 14  1  0
 12  4  1  0
M  END
$$$$

     RDKit          2D

 33 34  0  0  0  0  0  0  0  0999 V2000
  -11.5489   -1.6393    0.0000 C   0  0  0  0  0  0  0  0  0  0  0  0
  -10.3354   -2.5210    0.0000 C   0  0  0  0  0  0  0  0  0  0  0  0
  -10.4922   -4.0128    0.0000 C   0  0  0  0  0  0  0  0  0  0  0  0
   -8.9651   -1.9109    0.0000 N   0  0  0  0  0  0  0  0  0  0  0  0
   -7.7515   -2.7926    0.0000 C   0  0  0  0  0  0  0  0  0  0  0  0
   -6.3812   -2.1825    0.0000 C   0  0  0  0  0  0  0  0  0  0  0  0
   -6.2244   -0.6907    0.0000 O   0  0  0  0  0  0  0  0  0  0  0  0
   -5.1677   -3.0642    0.0000 C   0  0  0  0  0  0  0  0  0  0  0  0
   -3.7974   -2.4540    0.0000 O   0  0  0  0  0  0  0  0  0  0  0  0
   -2.5838   -3.3357    0.0000 C   0  0  0  0  0  0  0  0  0  0  0  0
   -2.7406   -4.8275    0.0000 C   0  0  0  0  0  0  0  0  0  0  0  0
   -1.5271   -5.7092    0.0000 C   0  0  0  0  0  0  0  0  0  0  0  0
   -0.1568   -5.0991    0.0000 C   0  0  0  0  0  0  0  0  0  0  0  0
    0.0000   -3.6073    0.0000 C   0  0  0  0  0  0  0  0  0  0  0  0
    1.2135   -2.7256    0.0000 N   0  0  0  0  0  0  0  0  0  0  0  0
    0.7500   -1.2990    0.0000 C   0  0  0  0  0  0  0  0  0  0  0  0
    1.5000    0.0000    0.0000 C   0  0  0  0  0  0  0  0  0  0  0  0
    0.7500    1.2990    0.0000 C   0  0  0  0  0  0  0  0  0  0  0  0
   -0.7500    1.2990    0.0000 C   0  0  0  0  0  0  0  0  0  0  0  0
   -1.5000    0.0000    0.0000 C   0  0  0  0  0  0  0  0  0  0  0  0
   -0.7500   -1.2990    0.0000 C   0  0  0  0  0  0  0  0  0  0  0  0
   -1.2135   -2.7256    0.0000 C   0  0  0  0  0  0  0  0  0  0  0  0
   -8.8083   -0.4191    0.0000 C   0  0  0  0  0  0  0  0  0  0  0  0
   -7.3165   -0.5759    0.0000 F   0  0  0  0  0  0  0  0  0  0  0  0
  -10.3000   -0.2623    0.0000 F   0  0  0  0  0  0  0  0  0  0  0  0
   -8.6515    1.0727    0.0000 C   0  0  0  0  0  0  0  0  0  0  0  0
   -7.1597    0.9159    0.0000 F   0  0  0  0  0  0  0  0  0  0  0  0
  -10.1433    1.2295    0.0000 F   0  0  0  0  0  0  0  0  0  0  0  0
   -8.4947    2.5644    0.0000 C   0  0  0  0  0  0  0  0  0  0  0  0
   -8.3379    4.0562    0.0000 F   0  0  0  0  0  0  0  0  0  0  0  0
   -9.9865    2.7212    0.0000 F   0  0  0  0  0  0  0  0  0  0  0  0
   -7.0029    2.4077    0.0000 F   0  0  0  0  0  0  0  0  0  0  0  0
    0.0000    5.0562    0.0000 I   0  0  0  0  0  0  0  0  0  0  0  0
  1  2  1  0
  2  3  1  0
  2  4  1  0
  4  5  1  0
  5  6  1  0
  6  7  1  0
  6  8  1  0
  8  9  1  0
  9 10  1  0
 10 11  2  0
 11 12  1  0
 12 13  2  0
 13 14  1  0
 14 15  1  0
 15 16  1  0
 16 17  2  0
 17 18  1  0
 18 19  2  0
 19 20  1  0
 20 21  2  0
 21 22  1  0
  4 23  1  0
 23 24  1  0
 23 25  1  0
 23 26  1  0
 26 27  1  0
 26 28  1  0
 26 29  1  0
 29 30  1  0
 29 31  1  0
 29 32  1  0
 22 10  1  0
 22 14  2  0
 21 16  1  0
M  END
$$$$

     RDKit          2D

 23 24  0  0  0  0  0  0  0  0999 V2000
    7.7650    5.1413    0.0000 C   0  0  0  0  0  0  0  0  0  0  0  0
    6.3742    4.5794    0.0000 C   0  0  0  0  0  0  0  0  0  0  0  0
    5.5793    5.8515    0.0000 C   0  0  0  0  0  0  0  0  0  0  0  0
    6.6861    3.1122    0.0000 C   0  0  0  0  0  0  0  0  0  0  0  0
    5.2595    3.5757    0.0000 N   0  0  0  0  0  0  0  0  0  0  0  0
    3.7923    3.2638    0.0000 C   0  0  0  0  0  0  0  0  0  0  0  0
    3.7151    4.1462    0.0000 F   0  0  0  0  0  0  0  0  0  0  0  0
    4.0807    2.4264    0.0000 F   0  0  0  0  0  0  0  0  0  0  0  0
    2.3250    2.9520    0.0000 C   0  0  0  0  0  0  0  0  0  0  0  0
    0.8578    2.6401    0.0000 C   0  0  0  0  0  0  0  0  0  0  0  0
    0.3943    1.2135    0.0000 N   0  0  0  0  0  0  0  0  0  0  0  0
    1.2760    0.0000    0.0000 C   0  0  0  0  0  0  0  0  0  0  0  0
    0.3943   -1.2135    0.0000 C   0  0  0  0  0  0  0  0  0  0  0  0
   -1.0323   -0.7500    0.0000 C   0  0  0  0  0  0  0  0  0  0  0  0
   -1.0323    0.7500    0.0000 C   0  0  0  0  0  0  0  0  0  0  0  0
    2.0132    4.4192    0.0000 C   0  0  0  0  0  0  0  0  0  0  0  0
    1.7013    5.8864    0.0000 F   0  0  0  0  0  0  0  0  0  0  0  0
    0.5460    4.1073    0.0000 F   0  0  0  0  0  0  0  0  0  0  0  0
    2.8506    4.7076    0.0000 F   0  0  0  0  0  0  0  0  0  0  0  0
    2.6369    1.4848    0.0000 C   0  0  0  0  0  0  0  0  0  0  0  0
    2.9488    0.0175    0.0000 F   0  0  0  0  0  0  0  0  0  0  0  0
    3.5193    1.5619    0.0000 F   0  0  0  0  0  0  0  0  0  0  0  0
    1.2888    0.8271    0.0000 F   0  0  0  0  0  0  0  0  0  0  0  0
  1  2  1  0
  2  3  1  0
  2  4  1  0
  4  5  1  0
  5  6  1  0
  6  7  1  0
  6  8  1  0
  6  9  1  0
  9 10  1  0
 10 11  1  0
 11 12  1  0
 12 13  1  0
 13 14  1  0
 14 15  1  0
  9 16  1  0
 16 17  1  0
 16 18  1  0
 16 19  1  0
  9 20  1  0
 20 21  1  0
 20 22  1  0
 20 23  1  0
  5  2  1  0
 15 11  1  0
M  END
$$$$

     RDKit          2D

 17 17  0  0  0  0  0  0  0  0999 V2000
    5.2500    1.2990    0.0000 C   0  0  0  0  0  0  0  0  0  0  0  0
    3.7500    1.2990    0.0000 C   0  0  0  0  0  0  0  0  0  0  0  0
    3.0000    0.0000    0.0000 C   0  0  0  0  0  0  0  0  0  0  0  0
    3.7500   -1.2990    0.0000 C   0  0  0  0  0  0  0  0  0  0  0  0
    1.5000    0.0000    0.0000 C   0  0  0  0  0  0  0  0  0  0  0  0
    0.7500   -1.2990    0.0000 C   0  0  0  0  0  0  0  0  0  0  0  0
   -0.7500   -1.2990    0.0000 C   0  0  0  0  0  0  0  0  0  0  0  0
   -1.5000    0.0000    0.0000 C   0  0  0  0  0  0  0  0  0  0  0  0
   -0.7500    1.2990    0.0000 C   0  0  0  0  0  0  0  0  0  0  0  0
    0.7500    1.2990    0.0000 C   0  0  0  0  0  0  0  0  0  0  0  0
    1.5000    2.5981    0.0000 O   0  0  0  0  0  0  0  0  0  0  0  0
    0.7500    3.8971    0.0000 C   0  0  0  0  0  0  0  0  0  0  0  0
   -0.5490    3.1471    0.0000 F   0  0  0  0  0  0  0  0  0  0  0  0
    2.0490    4.6471    0.0000 F   0  0  0  0  0  0  0  0  0  0  0  0
    0.0000    5.1962    0.0000 C   0  0  0  0  0  0  0  0  0  0  0  0
   -1.5000    5.1962    0.0000 F   0  0  0  0  0  0  0  0  0  0  0  0
    0.7500    6.4952    0.0000 F   0  0  0  0  0  0  0  0  0  0  0  0
  1  2  1  0
  2  3  1  0
  3  4  1  0
  3  5  1  0
  5  6  2  0
  6  7  1  0
  7  8  2  0
  8  9  1  0
  9 10  2  0
 10 11  1  0
 11 12  1  0
 12 13  1  0
 12 14  1  0
 12 15  1  0
 15 16  1  0
 15 17  1  0
 10  5  1  0
M  END
$$$$

     RDKit          2D

 12 12  0  0  0  0  0  0  0  0999 V2000
    5.7760    0.0000    0.0000 F   0  0  0  0  0  0  0  0  0  0  0  0
    4.2760    0.0000    0.0000 C   0  0  0  0  0  0  0  0  0  0  0  0
    4.2760    1.5000    0.0000 F   0  0  0  0  0  0  0  0  0  0  0  0
    4.2760   -1.5000    0.0000 F   0  0  0  0  0  0  0  0  0  0  0  0
    2.7760    0.0000    0.0000 C   0  0  0  0  0  0  0  0  0  0  0  0
    2.7760   -1.5000    0.0000 F   0  0  0  0  0  0  0  0  0  0  0  0
    2.7760    1.5000    0.0000 F   0  0  0  0  0  0  0  0  0  0  0  0
    1.2760    0.0000    0.0000 C   0  0  0  0  0  0  0  0  0  0  0  0
    0.3943    1.2135    0.0000 N   0  0  0  0  0  0  0  0  0  0  0  0
   -1.0323    0.7500    0.0000 C   0  0  0  0  0  0  0  0  0  0  0  0
   -1.0323   -0.7500    0.0000 C   0  0  0  0  0  0  0  0  0  0  0  0
    0.3943   -1.2135    0.0000 O   0  0  0  0  0  0  0  0  0  0  0  0
  1  2  1  0
  2  3  1  0
  2  4  1  0
  2  5  1  0
  5  6  1  0
  5  7  1  0
  5  8  1  0
  8  9  1  0
  9 10  1  0
 10 11  1  0
 11 12  1  0
 12  8  1  0
M  END
$$$$

     RDKit          2D

 20 20  0  0  0  0  0  0  0  0999 V2000
    3.0000    0.0000    0.0000 C   0  0  0  0  0  0  0  0  0  0  0  0
    1.5000    0.0000    0.0000 C   0  0  0  0  0  0  0  0  0  0  0  0
    0.7500   -1.2990    0.0000 C   0  0  0  0  0  0  0  0  0  0  0  0
   -0.7500   -1.2990    0.0000 C   0  0  0  0  0  0  0  0  0  0  0  0
   -1.5000   -2.5981    0.0000 O   0  0  0  0  0  0  0  0  0  0  0  0
   -1.5000    0.0000    0.0000 C   0  0  0  0  0  0  0  0  0  0  0  0
   -3.0000    0.0000    0.0000 C   0  0  0  0  0  0  0  0  0  0  0  0
   -3.0000   -1.5000    0.0000 O   0  0  0  0  0  0  0  0  0  0  0  0
   -4.5000    0.0000    0.0000 C   0  0  0  0  0  0  0  0  0  0  0  0
   -6.0000    0.0000    0.0000 F   0  0  0  0  0  0  0  0  0  0  0  0
   -4.6080    0.8791    0.0000 F   0  0  0  0  0  0  0  0  0  0  0  0
   -4.5000   -1.5000    0.0000 F   0  0  0  0  0  0  0  0  0  0  0  0
   -3.0000    1.5000    0.0000 C   0  0  0  0  0  0  0  0  0  0  0  0
   -3.0000    3.0000    0.0000 F   0  0  0  0  0  0  0  0  0  0  0  0
   -3.8791    1.6080    0.0000 F   0  0  0  0  0  0  0  0  0  0  0  0
   -2.2558    1.7857    0.0000 F   0  0  0  0  0  0  0  0  0  0  0  0
   -0.7500    1.2990    0.0000 C   0  0  0  0  0  0  0  0  0  0  0  0
   -1.4603    1.6610    0.0000 C   0  0  0  0  0  0  0  0  0  0  0  0
   -0.4895    2.7762    0.0000 C   0  0  0  0  0  0  0  0  0  0  0  0
    0.7500    1.2990    0.0000 C   0  0  0  0  0  0  0  0  0  0  0  0
  1  2  1  0
  2  3  2  0
  3  4  1  0
  4  5  1  0
  4  6  1  0
  6  7  1  0
  7  8  1  0
  7  9  1  0
  9 10  1  0
  9 11  1  0
  9 12  1  0
  7 13  1  0
 13 14  1  0
 13 15  1  0
 13 16  1  0
  6 17  1  0
 17 18  1  0
 17 19  1  0
 17 20  1  0
 20  2  1  0
M  END
$$$$

     RDKit          2D

 18 17  0  0  0  0  0  0  0  0999 V2000
    0.0000    0.0000    0.0000 C   0  0  0  0  0  0  0  0  0  0  0  0
    1.2990    0.7500    0.0000 C   0  0  0  0  0  0  0  0  0  0  0  0
    2.5981   -0.0000    0.0000 C   0  0  0  0  0  0  0  0  0  0  0  0
    3.8971    0.7500    0.0000 C   0  0  0  0  0  0  0  0  0  0  0  0
    5.1962   -0.0000    0.0000 C   0  0  0  0  0  0  0  0  0  0  0  0
    6.4952    0.7500    0.0000 C   0  0  0  0  0  0  0  0  0  0  0  0
    7.7942   -0.0000    0.0000 C   0  0  0  0  0  0  0  0  0  0  0  0
    8.5613    0.4429    0.0000 O   0  0  0  0  0  0  0  0  0  0  0  0
    6.4952    2.2500    0.0000 C   0  0  0  0  0  0  0  0  0  0  0  0
    4.9952    2.2500    0.0000 O   0  0  0  0  0  0  0  0  0  0  0  0
    6.4952    3.7500    0.0000 C   0  0  0  0  0  0  0  0  0  0  0  0
    6.4952    5.2500    0.0000 F   0  0  0  0  0  0  0  0  0  0  0  0
    4.9952    3.7500    0.0000 F   0  0  0  0  0  0  0  0  0  0  0  0
    7.3743    3.8580    0.0000 F   0  0  0  0  0  0  0  0  0  0  0  0
    7.9952    2.2500    0.0000 C   0  0  0  0  0  0  0  0  0  0  0  0
    9.4952    2.2500    0.0000 F   0  0  0  0  0  0  0  0  0  0  0  0
    8.1032    3.1291    0.0000 F   0  0  0  0  0  0  0  0  0  0  0  0
    8.2095    1.3906    0.0000 F   0  0  0  0  0  0  0  0  0  0  0  0
  1  2  1  0
  2  3  1  0
  3  4  1  0
  4  5  1  0
  5  6  1  0
  6  7  1  0
  7  8  1  0
  6  9  1  0
  9 10  1  0
  9 11  1  0
 11 12  1  0
 11 13  1  0
 11 14  1  0
  9 15  1  0
 15 16  1  0
 15 17  1  0
 15 18  1  0
M  END
$$$$

     RDKit          2D

 20 20  0  0  0  0  0  0  0  0999 V2000
    5.5727   -2.2460    0.0000 C   0  0  0  0  0  0  0  0  0  0  0  0
    5.0260   -1.2990    0.0000 C   0  0  0  0  0  0  0  0  0  0  0  0
    3.5260   -1.2990    0.0000 C   0  0  0  0  0  0  0  0  0  0  0  0
    2.7760    0.0000    0.0000 C   0  0  0  0  0  0  0  0  0  0  0  0
    3.5260    1.2990    0.0000 O   0  0  0  0  0  0  0  0  0  0  0  0
    1.2760    0.0000    0.0000 C   0  0  0  0  0  0  0  0  0  0  0  0
    0.3943    1.2135    0.0000 C   0  0  0  0  0  0  0  0  0  0  0  0
   -1.0323    0.7500    0.0000 C   0  0  0  0  0  0  0  0  0  0  0  0
   -1.0323   -0.7500    0.0000 C   0  0  0  0  0  0  0  0  0  0  0  0
    0.3943   -1.2135    0.0000 S   0  0  0  0  0  0  0  0  0  0  0  0
    2.7760   -2.5981    0.0000 C   0  0  0  0  0  0  0  0  0  0  0  0
    1.4769   -1.8481    0.0000 O   0  0  0  0  0  0  0  0  0  0  0  0
    2.0260   -3.8971    0.0000 C   0  0  0  0  0  0  0  0  0  0  0  0
    1.2760   -5.1962    0.0000 F   0  0  0  0  0  0  0  0  0  0  0  0
    0.7269   -3.1471    0.0000 F   0  0  0  0  0  0  0  0  0  0  0  0
    2.7333   -4.4302    0.0000 F   0  0  0  0  0  0  0  0  0  0  0  0
    4.0750   -3.3481    0.0000 C   0  0  0  0  0  0  0  0  0  0  0  0
    5.3741   -4.0981    0.0000 F   0  0  0  0  0  0  0  0  0  0  0  0
    3.7290   -4.1634    0.0000 F   0  0  0  0  0  0  0  0  0  0  0  0
    4.8347   -2.5615    0.0000 F   0  0  0  0  0  0  0  0  0  0  0  0
  1  2  1  0
  2  3  1  0
  3  4  1  0
  4  5  1  0
  4  6  1  0
  6  7  2  0
  7  8  1  0
  8  9  2  0
  9 10  1  0
  3 11  1  0
 11 12  1  0
 11 13  1  0
 13 14  1  0
 13 15  1  0
 13 16  1  0
 11 17  1  0
 17 18  1  0
 17 19  1  0
 17 20  1  0
 10  6  1  0
M  END
$$$$

     RDKit          2D

 18 19  0  0  0  0  0  0  0  0999 V2000
   -1.4958    3.1036    0.0000 O   0  0  0  0  0  0  0  0  0  0  0  0
   -1.0323    1.6771    0.0000 C   0  0  0  0  0  0  0  0  0  0  0  0
    0.3943    1.2135    0.0000 C   0  0  0  0  0  0  0  0  0  0  0  0
    1.2760    0.0000    0.0000 C   0  0  0  0  0  0  0  0  0  0  0  0
    0.3943   -1.2135    0.0000 C   0  0  0  0  0  0  0  0  0  0  0  0
   -1.0323   -0.7500    0.0000 C   0  0  0  0  0  0  0  0  0  0  0  0
   -1.0323    0.7500    0.0000 C   0  0  0  0  0  0  0  0  0  0  0  0
   -1.9140    0.4635    0.0000 C   0  0  0  0  0  0  0  0  0  0  0  0
   -3.4140    0.4635    0.0000 C   0  0  0  0  0  0  0  0  0  0  0  0
   -3.4140   -1.0365    0.0000 O   0  0  0  0  0  0  0  0  0  0  0  0
   -4.9140    0.4635    0.0000 C   0  0  0  0  0  0  0  0  0  0  0  0
   -6.4140    0.4635    0.0000 F   0  0  0  0  0  0  0  0  0  0  0  0
   -4.9140   -1.0365    0.0000 F   0  0  0  0  0  0  0  0  0  0  0  0
   -5.0219    1.3427    0.0000 F   0  0  0  0  0  0  0  0  0  0  0  0
   -3.4140    1.9635    0.0000 C   0  0  0  0  0  0  0  0  0  0  0  0
   -3.4140    3.4635    0.0000 F   0  0  0  0  0  0  0  0  0  0  0  0
   -4.2931    2.0715    0.0000 F   0  0  0  0  0  0  0  0  0  0  0  0
   -1.9140    1.9635    0.0000 F   0  0  0  0  0  0  0  0  0  0  0  0
  1  2  2  0
  2  3  1  0
  3  4  1  0
  4  5  1  0
  5  6  1  0
  6  7  1  0
  6  8  1  0
  8  9  1  0
  9 10  1  0
  9 11  1  0
 11 12  1  0
 11 13  1  0
 11 14  1  0
  9 15  1  0
 15 16  1  0
 15 17  1  0
 15 18  1  0
  8  2  1  0
  7  3  1  0
M  END
$$$$

     RDKit          2D

 10  9  0  0  0  0  0  0  0  0999 V2000
   -0.0000   -1.5000    0.0000 F   0  0  0  0  0  0  0  0  0  0  0  0
    0.0000    0.0000    0.0000 C   0  0  0  0  0  0  0  0  0  0  0  0
    1.2990    0.7500    0.0000 C   0  0  0  0  0  0  0  0  0  0  0  0
    2.5981    1.5000    0.0000 F   0  0  0  0  0  0  0  0  0  0  0  0
    2.0490   -0.5490    0.0000 F   0  0  0  0  0  0  0  0  0  0  0  0
    0.5490    2.0490    0.0000 F   0  0  0  0  0  0  0  0  0  0  0  0
   -1.2990    0.7500    0.0000 C   0  0  0  0  0  0  0  0  0  0  0  0
   -2.5981    1.5000    0.0000 F   0  0  0  0  0  0  0  0  0  0  0  0
   -2.0490   -0.5490    0.0000 F   0  0  0  0  0  0  0  0  0  0  0  0
   -0.5490    2.0490    0.0000 Cl  0  0  0  0  0  0  0  0  0  0  0  0
  1  2  1  0
  2  3  1  0
  3  4  1  0
  3  5  1  0
  3  6  1  0
  2  7  1  0
  7  8  1  0
  7  9  1  0
  7 10  1  0
M  END
$$$$

     RDKit          2D

 10  9  0  0  0  0  0  0  0  0999 V2000
   -1.2990    0.7500    0.0000 F   0  0  0  0  0  0  0  0  0  0  0  0
    0.0000    0.0000    0.0000 C   0  0  0  0  0  0  0  0  0  0  0  0
   -0.0000   -1.5000    0.0000 Cl  0  0  0  0  0  0  0  0  0  0  0  0
    1.2990    0.7500    0.0000 O   0  0  0  0  0  0  0  0  0  0  0  0
    2.5981   -0.0000    0.0000 C   0  0  0  0  0  0  0  0  0  0  0  0
    2.5981   -1.5000    0.0000 F   0  0  0  0  0  0  0  0  0  0  0  0
    3.8971    0.7500    0.0000 C   0  0  0  0  0  0  0  0  0  0  0  0
    5.1962    1.5000    0.0000 F   0  0  0  0  0  0  0  0  0  0  0  0
    4.6471   -0.5490    0.0000 F   0  0  0  0  0  0  0  0  0  0  0  0
    3.1471    2.0490    0.0000 F   0  0  0  0  0  0  0  0  0  0  0  0
  1  2  1  0
  2  3  1  0
  2  4  1  0
  4  5  1  0
  5  6  1  0
  5  7  1  0
  7  8  1  0
  7  9  1  0
  7 10  1  0
M  END
$$$$

     RDKit          2D

 15 14  0  0  0  0  0  0  0  0999 V2000
    2.7760    0.0000    0.0000 C   0  0  0  0  0  0  0  0  0  0  0  0
    1.2760    0.0000    0.0000 C   0  0  0  0  0  0  0  0  0  0  0  0
    0.3943    1.2135    0.0000 C   0  0  0  0  0  0  0  0  0  0  0  0
   -1.0323    0.7500    0.0000 N   0  0  0  0  0  0  0  0  0  0  0  0
   -1.0323   -0.7500    0.0000 C   0  0  0  0  0  0  0  0  0  0  0  0
   -1.3442   -2.2172    0.0000 C   0  0  0  0  0  0  0  0  0  0  0  0
   -1.6560   -3.6844    0.0000 F   0  0  0  0  0  0  0  0  0  0  0  0
    0.1231   -2.5291    0.0000 F   0  0  0  0  0  0  0  0  0  0  0  0
   -2.1383   -2.1478    0.0000 F   0  0  0  0  0  0  0  0  0  0  0  0
   -2.5241   -0.5932    0.0000 C   0  0  0  0  0  0  0  0  0  0  0  0
   -4.0159   -0.4364    0.0000 F   0  0  0  0  0  0  0  0  0  0  0  0
   -2.7034   -1.3699    0.0000 F   0  0  0  0  0  0  0  0  0  0  0  0
   -2.3673    0.8986    0.0000 F   0  0  0  0  0  0  0  0  0  0  0  0
    0.3943   -1.2135    0.0000 N   0  0  0  0  0  0  0  0  0  0  0  0
    0.0000    2.2135    0.0000 O   0  0  0  0  0  0  0  0  0  0  0  0
  1  2  1  0
  2  3  1  0
  3  4  1  0
  4  5  1  0
  5  6  1  0
  6  7  1  0
  6  8  1  0
  6  9  1  0
  5 10  1  0
 10 11  1  0
 10 12  1  0
 10 13  1  0
  5 14  1  0
 14  2  1  0
M  END
$$$$

     RDKit          2D

 15 14  0  0  0  0  0  0  0  0999 V2000
    0.0000    0.0000    0.0000 C   0  0  0  0  0  0  0  0  0  0  0  0
    1.2990    0.7500    0.0000 C   0  0  0  0  0  0  0  0  0  0  0  0
    2.5981   -0.0000    0.0000 C   0  0  0  0  0  0  0  0  0  0  0  0
    1.2990    2.2500    0.0000 C   0  0  0  0  0  0  0  0  0  0  0  0
    0.0000    3.0000    0.0000 O   0  0  0  0  0  0  0  0  0  0  0  0
    2.5981    3.0000    0.0000 O   0  0  0  0  0  0  0  0  0  0  0  0
    2.5981    4.5000    0.0000 C   0  0  0  0  0  0  0  0  0  0  0  0
    4.0981    4.5000    0.0000 C   0  0  0  0  0  0  0  0  0  0  0  0
    1.0981    4.5000    0.0000 C   0  0  0  0  0  0  0  0  0  0  0  0
    2.5981    6.0000    0.0000 C   0  0  0  0  0  0  0  0  0  0  0  0
    1.0981    6.0000    0.0000 F   0  0  0  0  0  0  0  0  0  0  0  0
    4.0981    6.0000    0.0000 F   0  0  0  0  0  0  0  0  0  0  0  0
    2.5981    7.5000    0.0000 C   0  0  0  0  0  0  0  0  0  0  0  0
    3.8971    8.2500    0.0000 F   0  0  0  0  0  0  0  0  0  0  0  0
    1.2990    8.2500    0.0000 F   0  0  0  0  0  0  0  0  0  0  0  0
  1  2  2  0
  2  3  1  0
  2  4  1  0
  4  5  2  0
  4  6  1  0
  6  7  1  0
  7  8  1  0
  7  9  1  0
  7 10  1  0
 10 11  1  0
 10 12  1  0
 10 13  1  0
 13 14  1  0
 13 15  1  0
M  END
$$$$

     RDKit          2D

 13 12  0  0  0  0  0  0  0  0999 V2000
   -1.5000    0.0000    0.0000 F   0  0  0  0  0  0  0  0  0  0  0  0
    0.0000    0.0000    0.0000 C   0  0  0  0  0  0  0  0  0  0  0  0
   -0.2143    0.8594    0.0000 F   0  0  0  0  0  0  0  0  0  0  0  0
   -0.0000   -1.5000    0.0000 Cl  0  0  0  0  0  0  0  0  0  0  0  0
    1.5000    0.0000    0.0000 C   0  0  0  0  0  0  0  0  0  0  0  0
    2.9888   -0.1828    0.0000 F   0  0  0  0  0  0  0  0  0  0  0  0
    1.5000   -1.5000    0.0000 F   0  0  0  0  0  0  0  0  0  0  0  0
    1.5000    1.5000    0.0000 S   0  0  0  0  0  0  0  0  0  0  0  0
    0.7126    1.3754    0.0000 F   0  0  0  0  0  0  0  0  0  0  0  0
    0.3021    2.4028    0.0000 F   0  0  0  0  0  0  0  0  0  0  0  0
    2.7990    2.2500    0.0000 F   0  0  0  0  0  0  0  0  0  0  0  0
    1.5000    3.0000    0.0000 F   0  0  0  0  0  0  0  0  0  0  0  0
    2.8808    0.9139    0.0000 F   0  0  0  0  0  0  0  0  0  0  0  0
  1  2  1  0
  2  3  1  0
  2  4  1  0
  2  5  1  0
  5  6  1  0
  5  7  1  0
  5  8  1  0
  8  9  1  0
  8 10  1  0
  8 11  1  0
  8 12  1  0
  8 13  1  0
M  END
$$$$

     RDKit          2D

 14 13  0  0  0  0  0  0  0  0999 V2000
    2.5981    3.0000    0.0000 F   0  0  0  0  0  0  0  0  0  0  0  0
    2.5981    1.5000    0.0000 C   0  0  0  0  0  0  0  0  0  0  0  0
    3.8971    0.7500    0.0000 F   0  0  0  0  0  0  0  0  0  0  0  0
    1.2990    0.7500    0.0000 C   0  0  0  0  0  0  0  0  0  0  0  0
    2.0490   -0.5490    0.0000 F   0  0  0  0  0  0  0  0  0  0  0  0
    0.5490    2.0490    0.0000 F   0  0  0  0  0  0  0  0  0  0  0  0
    0.0000    0.0000    0.0000 C   0  0  0  0  0  0  0  0  0  0  0  0
   -1.2990    0.7500    0.0000 O   0  0  0  0  0  0  0  0  0  0  0  0
   -2.5981    0.0000    0.0000 C   0  0  0  0  0  0  0  0  0  0  0  0
   -1.8481   -1.2990    0.0000 F   0  0  0  0  0  0  0  0  0  0  0  0
   -3.3481    1.2990    0.0000 F   0  0  0  0  0  0  0  0  0  0  0  0
   -3.8971   -0.7500    0.0000 C   0  0  0  0  0  0  0  0  0  0  0  0
   -3.8971   -2.2500    0.0000 F   0  0  0  0  0  0  0  0  0  0  0  0
   -5.1962    0.0000    0.0000 Cl  0  0  0  0  0  0  0  0  0  0  0  0
  1  2  1  0
  2  3  1  0
  2  4  1  0
  4  5  1  0
  4  6  1  0
  4  7  1  0
  7  8  1  0
  8  9  1  0
  9 10  1  0
  9 11  1  0
  9 12  1  0
 12 13  1  0
 12 14  1  0
M  END
$$$$

     RDKit          2D

 13 13  0  0  0  0  0  0  0  0999 V2000
    2.7760    0.0000    0.0000 F   0  0  0  0  0  0  0  0  0  0  0  0
    1.2760    0.0000    0.0000 C   0  0  0  0  0  0  0  0  0  0  0  0
    0.3943    1.2135    0.0000 C   0  0  0  0  0  0  0  0  0  0  0  0
    0.8578    2.6401    0.0000 F   0  0  0  0  0  0  0  0  0  0  0  0
   -1.0323    0.7500    0.0000 C   0  0  0  0  0  0  0  0  0  0  0  0
   -2.5241    0.5932    0.0000 F   0  0  0  0  0  0  0  0  0  0  0  0
   -1.3442    2.2172    0.0000 F   0  0  0  0  0  0  0  0  0  0  0  0
   -1.0323   -0.7500    0.0000 C   0  0  0  0  0  0  0  0  0  0  0  0
   -1.3442   -2.2172    0.0000 F   0  0  0  0  0  0  0  0  0  0  0  0
   -2.5241   -0.5932    0.0000 F   0  0  0  0  0  0  0  0  0  0  0  0
    0.3943   -1.2135    0.0000 C   0  0  0  0  0  0  0  0  0  0  0  0
    1.6933   -1.9635    0.0000 F   0  0  0  0  0  0  0  0  0  0  0  0
   -0.2158   -2.5838    0.0000 F   0  0  0  0  0  0  0  0  0  0  0  0
  1  2  1  0
  2  3  1  0
  3  4  1  0
  3  5  1  0
  5  6  1  0
  5  7  1  0
  5  8  1  0
  8  9  1  0
  8 10  1  0
  8 11  1  0
 11 12  1  0
 11 13  1  0
 11  2  1  0
M  END
$$$$

     RDKit          2D

 40 38  0  0  0  0  0  0  0  0999 V2000
    0.0000    0.0000    0.0000 C   0  0  0  0  0  0  0  0  0  0  0  0
    1.2990    0.7500    0.0000 C   0  0  0  0  0  0  0  0  0  0  0  0
    2.5981   -0.0000    0.0000 N   0  0  0  0  0  0  0  0  0  0  0  0
    3.8971   -0.7500    0.0000 C   0  0  0  0  0  0  0  0  0  0  0  0
    1.8481   -1.2990    0.0000 C   0  0  0  0  0  0  0  0  0  0  0  0
    2.5981   -2.5981    0.0000 C   0  0  0  0  0  0  0  0  0  0  0  0
    3.3481    1.2990    0.0000 C   0  0  0  0  0  0  0  0  0  0  0  0
    4.8481    1.2990    0.0000 C   0  0  0  0  0  0  0  0  0  0  0  0
    5.5981    2.5981    0.0000 C   0  0  0  0  0  0  0  0  0  0  0  0
    7.0981    2.5981    0.0000 N   0  0  0  0  0  0  0  0  0  0  0  0
    7.8481    3.8971    0.0000 C   0  0  0  0  0  0  0  0  0  0  0  0
    7.0981    5.1962    0.0000 O   0  0  0  0  0  0  0  0  0  0  0  0
    9.3481    3.8971    0.0000 C   0  0  0  0  0  0  0  0  0  0  0  0
    9.3481    2.3971    0.0000 F   0  0  0  0  0  0  0  0  0  0  0  0
    9.3481    5.3971    0.0000 O   0  0  0  0  0  0  0  0  0  0  0  0
   10.6471    6.1471    0.0000 C   0  0  0  0  0  0  0  0  0  0  0  0
   11.5499    4.9492    0.0000 F   0  0  0  0  0  0  0  0  0  0  0  0
    9.8971    7.4462    0.0000 F   0  0  0  0  0  0  0  0  0  0  0  0
   11.9462    6.8971    0.0000 C   0  0  0  0  0  0  0  0  0  0  0  0
   12.6962    5.5981    0.0000 F   0  0  0  0  0  0  0  0  0  0  0  0
   11.1962    8.1962    0.0000 O   0  0  0  0  0  0  0  0  0  0  0  0
   11.9462    9.4952    0.0000 C   0  0  0  0  0  0  0  0  0  0  0  0
   12.6800    9.1837    0.0000 F   0  0  0  0  0  0  0  0  0  0  0  0
   10.6471   10.2452    0.0000 F   0  0  0  0  0  0  0  0  0  0  0  0
   12.6962   10.7942    0.0000 C   0  0  0  0  0  0  0  0  0  0  0  0
   11.3971   11.5442    0.0000 F   0  0  0  0  0  0  0  0  0  0  0  0
   13.9952   10.0442    0.0000 F   0  0  0  0  0  0  0  0  0  0  0  0
   13.4462   12.0933    0.0000 C   0  0  0  0  0  0  0  0  0  0  0  0
   14.1962   13.3923    0.0000 F   0  0  0  0  0  0  0  0  0  0  0  0
   14.7452   11.3433    0.0000 F   0  0  0  0  0  0  0  0  0  0  0  0
   12.1471   12.8433    0.0000 F   0  0  0  0  0  0  0  0  0  0  0  0
   13.2452    7.6471    0.0000 C   0  0  0  0  0  0  0  0  0  0  0  0
   14.5442    8.3971    0.0000 F   0  0  0  0  0  0  0  0  0  0  0  0
   13.9952    6.3481    0.0000 F   0  0  0  0  0  0  0  0  0  0  0  0
   13.1206    8.4345    0.0000 F   0  0  0  0  0  0  0  0  0  0  0  0
   10.8481    3.8971    0.0000 C   0  0  0  0  0  0  0  0  0  0  0  0
   12.3481    3.8971    0.0000 F   0  0  0  0  0  0  0  0  0  0  0  0
   10.8481    2.3971    0.0000 F   0  0  0  0  0  0  0  0  0  0  0  0
   11.3857    5.2974    0.0000 F   0  0  0  0  0  0  0  0  0  0  0  0
   15.7452    0.0000    0.0000 I   0  0  0  0  0  0  0  0  0  0  0  0
  1  2  1  0
  2  3  1  0
  3  4  1  0
  3  5  1  0
  5  6  1  0
  3  7  1  0
  7  8  1  0
  8  9  1  0
  9 10  1  0
 10 11  2  3
 11 12  1  0
 11 13  1  0
 13 14  1  0
 13 15  1  0
 15 16  1  0
 16 17  1  0
 16 18  1  0
 16 19  1  0
 19 20  1  0
 19 21  1  0
 21 22  1  0
 22 23  1  0
 22 24  1  0
 22 25  1  0
 25 26  1  0
 25 27  1  0
 25 28  1  0
 28 29  1  0
 28 30  1  0
 28 31  1  0
 19 32  1  0
 32 33  1  0
 32 34  1  0
 32 35  1  0
 13 36  1  0
 36 37  1  0
 36 38  1  0
 36 39  1  0
M  CHG  2   3   1  12  -1
M  END
$$$$

     RDKit          2D

 15 14  0  0  0  0  0  0  0  0999 V2000
   -1.5000    0.0000    0.0000 F   0  0  0  0  0  0  0  0  0  0  0  0
    0.0000    0.0000    0.0000 C   0  0  0  0  0  0  0  0  0  0  0  0
    0.0000    1.5000    0.0000 F   0  0  0  0  0  0  0  0  0  0  0  0
   -0.0000   -1.5000    0.0000 Cl  0  0  0  0  0  0  0  0  0  0  0  0
    1.5000    0.0000    0.0000 C   0  0  0  0  0  0  0  0  0  0  0  0
    1.5000   -1.5000    0.0000 F   0  0  0  0  0  0  0  0  0  0  0  0
    1.5000    1.5000    0.0000 Cl  0  0  0  0  0  0  0  0  0  0  0  0
    3.0000    0.0000    0.0000 O   0  0  0  0  0  0  0  0  0  0  0  0
    3.7500    1.2990    0.0000 C   0  0  0  0  0  0  0  0  0  0  0  0
    2.4510    2.0490    0.0000 F   0  0  0  0  0  0  0  0  0  0  0  0
    5.0490    0.5490    0.0000 F   0  0  0  0  0  0  0  0  0  0  0  0
    4.5000    2.5981    0.0000 C   0  0  0  0  0  0  0  0  0  0  0  0
    5.2500    3.8971    0.0000 F   0  0  0  0  0  0  0  0  0  0  0  0
    3.2010    3.3481    0.0000 F   0  0  0  0  0  0  0  0  0  0  0  0
    5.7990    1.8481    0.0000 I   0  0  0  0  0  0  0  0  0  0  0  0
  1  2  1  0
  2  3  1  0
  2  4  1  0
  2  5  1  0
  5  6  1  0
  5  7  1  0
  5  8  1  0
  8  9  1  0
  9 10  1  0
  9 11  1  0
  9 12  1  0
 12 13  1  0
 12 14  1  0
 12 15  1  0
M  END
$$$$

     RDKit          2D

 62 61  0  0  0  0  0  0  0  0999 V2000
   -1.5000   -1.5000    0.0000 O   0  0  0  0  0  0  0  0  0  0  0  0
    0.0000   -1.5000    0.0000 S   0  0  0  0  0  0  0  0  0  0  0  0
    0.7912   -1.5972    0.0000 O   0  0  0  0  0  0  0  0  0  0  0  0
   -0.0000   -3.0000    0.0000 O   0  0  0  0  0  0  0  0  0  0  0  0
    0.0000    0.0000    0.0000 C   0  0  0  0  0  0  0  0  0  0  0  0
   -1.5000    0.0000    0.0000 F   0  0  0  0  0  0  0  0  0  0  0  0
    0.0000    1.5000    0.0000 F   0  0  0  0  0  0  0  0  0  0  0  0
    1.5000    0.0000    0.0000 C   0  0  0  0  0  0  0  0  0  0  0  0
    1.5000    1.5000    0.0000 F   0  0  0  0  0  0  0  0  0  0  0  0
    1.6080   -0.8791    0.0000 F   0  0  0  0  0  0  0  0  0  0  0  0
    3.0000    0.0000    0.0000 C   0  0  0  0  0  0  0  0  0  0  0  0
    3.0000   -1.5000    0.0000 F   0  0  0  0  0  0  0  0  0  0  0  0
    3.0000    1.5000    0.0000 F   0  0  0  0  0  0  0  0  0  0  0  0
    4.5000    0.0000    0.0000 C   0  0  0  0  0  0  0  0  0  0  0  0
    4.5000    1.5000    0.0000 F   0  0  0  0  0  0  0  0  0  0  0  0
    4.5000   -1.5000    0.0000 F   0  0  0  0  0  0  0  0  0  0  0  0
    6.0000    0.0000    0.0000 C   0  0  0  0  0  0  0  0  0  0  0  0
    6.0000   -1.5000    0.0000 F   0  0  0  0  0  0  0  0  0  0  0  0
    6.0000    1.5000    0.0000 F   0  0  0  0  0  0  0  0  0  0  0  0
    7.5000    0.0000    0.0000 C   0  0  0  0  0  0  0  0  0  0  0  0
    7.5000    1.5000    0.0000 F   0  0  0  0  0  0  0  0  0  0  0  0
    7.5000   -1.5000    0.0000 F   0  0  0  0  0  0  0  0  0  0  0  0
    9.0000    0.0000    0.0000 C   0  0  0  0  0  0  0  0  0  0  0  0
    9.0000   -1.5000    0.0000 F   0  0  0  0  0  0  0  0  0  0  0  0
    9.0000    1.5000    0.0000 F   0  0  0  0  0  0  0  0  0  0  0  0
   10.5000    0.0000    0.0000 C   0  0  0  0  0  0  0  0  0  0  0  0
   10.5000    1.5000    0.0000 F   0  0  0  0  0  0  0  0  0  0  0  0
   10.5000   -1.5000    0.0000 F   0  0  0  0  0  0  0  0  0  0  0  0
   12.0000    0.0000    0.0000 C   0  0  0  0  0  0  0  0  0  0  0  0
   12.0000   -1.5000    0.0000 F   0  0  0  0  0  0  0  0  0  0  0  0
   12.0000    1.5000    0.0000 F   0  0  0  0  0  0  0  0  0  0  0  0
   13.5000    0.0000    0.0000 C   0  0  0  0  0  0  0  0  0  0  0  0
   13.5000    1.5000    0.0000 F   0  0  0  0  0  0  0  0  0  0  0  0
   13.5000   -1.5000    0.0000 F   0  0  0  0  0  0  0  0  0  0  0  0
   15.0000    0.0000    0.0000 C   0  0  0  0  0  0  0  0  0  0  0  0
   15.0000    1.5000    0.0000 F   0  0  0  0  0  0  0  0  0  0  0  0
   15.0000   -1.5000    0.0000 F   0  0  0  0  0  0  0  0  0  0  0  0
   16.5000    0.0000    0.0000 C   0  0  0  0  0  0  0  0  0  0  0  0
   16.5000   -1.5000    0.0000 F   0  0  0  0  0  0  0  0  0  0  0  0
   16.5000    1.5000    0.0000 F   0  0  0  0  0  0  0  0  0  0  0  0
   18.0000    0.0000    0.0000 C   0  0  0  0  0  0  0  0  0  0  0  0
   18.0000    1.5000    0.0000 F   0  0  0  0  0  0  0  0  0  0  0  0
   18.0000   -1.5000    0.0000 F   0  0  0  0  0  0  0  0  0  0  0  0
   19.5000    0.0000    0.0000 C   0  0  0  0  0  0  0  0  0  0  0  0
   19.5000   -1.5000    0.0000 F   0  0  0  0  0  0  0  0  0  0  0  0
   19.5000    1.5000    0.0000 F   0  0  0  0  0  0  0  0  0  0  0  0
   21.0000    0.0000    0.0000 C   0  0  0  0  0  0  0  0  0  0  0  0
   21.0000    1.5000    0.0000 F   0  0  0  0  0  0  0  0  0  0  0  0
   21.0000   -1.5000    0.0000 F   0  0  0  0  0  0  0  0  0  0  0  0
   22.5000    0.0000    0.0000 C   0  0  0  0  0  0  0  0  0  0  0  0
   22.5000   -1.5000    0.0000 F   0  0  0  0  0  0  0  0  0  0  0  0
   22.5000    1.5000    0.0000 F   0  0  0  0  0  0  0  0  0  0  0  0
   24.0000    0.0000    0.0000 C   0  0  0  0  0  0  0  0  0  0  0  0
   24.0000    1.5000    0.0000 F   0  0  0  0  0  0  0  0  0  0  0  0
   24.0000   -1.5000    0.0000 F   0  0  0  0  0  0  0  0  0  0  0  0
   25.5000    0.0000    0.0000 C   0  0  0  0  0  0  0  0  0  0  0  0
   25.5000   -1.5000    0.0000 F   0  0  0  0  0  0  0  0  0  0  0  0
   25.5000    1.5000    0.0000 F   0  0  0  0  0  0  0  0  0  0  0  0
   27.0000    0.0000    0.0000 C   0  0  0  0  0  0  0  0  0  0  0  0
   28.5000    0.0000    0.0000 F   0  0  0  0  0  0  0  0  0  0  0  0
   27.0000    1.5000    0.0000 F   0  0  0  0  0  0  0  0  0  0  0  0
   27.0000   -1.5000    0.0000 F   0  0  0  0  0  0  0  0  0  0  0  0
  1  2  2  0
  2  3  2  0
  2  4  1  0
  2  5  1  0
  5  6  1  0
  5  7  1  0
  5  8  1  0
  8  9  1  0
  8 10  1  0
  8 11  1  0
 11 12  1  0
 11 13  1  0
 11 14  1  0
 14 15  1  0
 14 16  1  0
 14 17  1  0
 17 18  1  0
 17 19  1  0
 17 20  1  0
 20 21  1  0
 20 22  1  0
 20 23  1  0
 23 24  1  0
 23 25  1  0
 23 26  1  0
 26 27  1  0
 26 28  1  0
 26 29  1  0
 29 30  1  0
 29 31  1  0
 29 32  1  0
 32 33  1  0
 32 34  1  0
 32 35  1  0
 35 36  1  0
 35 37  1  0
 35 38  1  0
 38 39  1  0
 38 40  1  0
 38 41  1  0
 41 42  1  0
 41 43  1  0
 41 44  1  0
 44 45  1  0
 44 46  1  0
 44 47  1  0
 47 48  1  0
 47 49  1  0
 47 50  1  0
 50 51  1  0
 50 52  1  0
 50 53  1  0
 53 54  1  0
 53 55  1  0
 53 56  1  0
 56 57  1  0
 56 58  1  0
 56 59  1  0
 59 60  1  0
 59 61  1  0
 59 62  1  0
M  END
$$$$

     RDKit          2D

 19 18  0  0  0  0  0  0  0  0999 V2000
   -0.0000   -1.5000    0.0000 O   0  0  0  0  0  0  0  0  0  0  0  0
    0.0000    0.0000    0.0000 C   0  0  0  0  0  0  0  0  0  0  0  0
   -1.2990    0.7500    0.0000 O   0  0  0  0  0  0  0  0  0  0  0  0
    1.2990    0.7500    0.0000 C   0  0  0  0  0  0  0  0  0  0  0  0
    2.0490   -0.5490    0.0000 F   0  0  0  0  0  0  0  0  0  0  0  0
    0.5490    2.0490    0.0000 F   0  0  0  0  0  0  0  0  0  0  0  0
    2.5981    1.5000    0.0000 C   0  0  0  0  0  0  0  0  0  0  0  0
    2.9441    0.6847    0.0000 F   0  0  0  0  0  0  0  0  0  0  0  0
    1.8481    2.7990    0.0000 F   0  0  0  0  0  0  0  0  0  0  0  0
    3.8971    2.2500    0.0000 C   0  0  0  0  0  0  0  0  0  0  0  0
    3.1471    3.5490    0.0000 F   0  0  0  0  0  0  0  0  0  0  0  0
    5.1962    3.0000    0.0000 C   0  0  0  0  0  0  0  0  0  0  0  0
    6.4952    3.7500    0.0000 F   0  0  0  0  0  0  0  0  0  0  0  0
    4.4462    4.2990    0.0000 F   0  0  0  0  0  0  0  0  0  0  0  0
    5.7292    2.2926    0.0000 F   0  0  0  0  0  0  0  0  0  0  0  0
    4.6471    0.9510    0.0000 C   0  0  0  0  0  0  0  0  0  0  0  0
    5.3971   -0.3481    0.0000 F   0  0  0  0  0  0  0  0  0  0  0  0
    5.4624    1.2970    0.0000 F   0  0  0  0  0  0  0  0  0  0  0  0
    3.9397    0.4179    0.0000 F   0  0  0  0  0  0  0  0  0  0  0  0
  1  2  2  0
  2  3  1  0
  2  4  1  0
  4  5  1  0
  4  6  1  0
  4  7  1  0
  7  8  1  0
  7  9  1  0
  7 10  1  0
 10 11  1  0
 10 12  1  0
 12 13  1  0
 12 14  1  0
 12 15  1  0
 10 16  1  0
 16 17  1  0
 16 18  1  0
 16 19  1  0
M  END
$$$$

     RDKit          2D

 28 29  0  0  0  0  0  0  0  0999 V2000
    2.6491    0.9642    0.0000 F   0  0  0  0  0  0  0  0  0  0  0  0
    1.5000    0.0000    0.0000 C   0  0  0  0  0  0  0  0  0  0  0  0
    2.6491   -0.9642    0.0000 F   0  0  0  0  0  0  0  0  0  0  0  0
    0.7500   -1.2990    0.0000 C   0  0  0  0  0  0  0  0  0  0  0  0
    2.1595   -1.8121    0.0000 F   0  0  0  0  0  0  0  0  0  0  0  0
    0.4895   -2.7762    0.0000 F   0  0  0  0  0  0  0  0  0  0  0  0
   -0.7500   -1.2990    0.0000 C   0  0  0  0  0  0  0  0  0  0  0  0
   -0.4895   -2.7762    0.0000 F   0  0  0  0  0  0  0  0  0  0  0  0
   -1.8692   -2.0540    0.0000 F   0  0  0  0  0  0  0  0  0  0  0  0
   -1.5000    0.0000    0.0000 C   0  0  0  0  0  0  0  0  0  0  0  0
   -2.1750   -1.1691    0.0000 F   0  0  0  0  0  0  0  0  0  0  0  0
   -3.0000    0.0000    0.0000 C   0  0  0  0  0  0  0  0  0  0  0  0
   -4.4095   -0.5130    0.0000 F   0  0  0  0  0  0  0  0  0  0  0  0
   -3.1047   -1.4963    0.0000 F   0  0  0  0  0  0  0  0  0  0  0  0
   -3.7500    1.2990    0.0000 C   0  0  0  0  0  0  0  0  0  0  0  0
   -4.8991    2.2632    0.0000 F   0  0  0  0  0  0  0  0  0  0  0  0
   -4.8991    0.3349    0.0000 F   0  0  0  0  0  0  0  0  0  0  0  0
   -3.0000    2.5981    0.0000 C   0  0  0  0  0  0  0  0  0  0  0  0
   -2.7395    4.0753    0.0000 F   0  0  0  0  0  0  0  0  0  0  0  0
   -4.4095    3.1111    0.0000 F   0  0  0  0  0  0  0  0  0  0  0  0
   -1.5000    2.5981    0.0000 C   0  0  0  0  0  0  0  0  0  0  0  0
   -0.3808    3.3530    0.0000 F   0  0  0  0  0  0  0  0  0  0  0  0
   -1.7605    4.0753    0.0000 F   0  0  0  0  0  0  0  0  0  0  0  0
   -0.7500    1.2990    0.0000 C   0  0  0  0  0  0  0  0  0  0  0  0
   -0.0750    2.4682    0.0000 F   0  0  0  0  0  0  0  0  0  0  0  0
    0.7500    1.2990    0.0000 C   0  0  0  0  0  0  0  0  0  0  0  0
    0.8547    2.7954    0.0000 F   0  0  0  0  0  0  0  0  0  0  0  0
    2.1595    1.8121    0.0000 F   0  0  0  0  0  0  0  0  0  0  0  0
  1  2  1  0
  2  3  1  0
  2  4  1  0
  4  5  1  0
  4  6  1  0
  4  7  1  0
  7  8  1  0
  7  9  1  0
  7 10  1  0
 10 11  1  1
 10 12  1  0
 12 13  1  0
 12 14  1  0
 12 15  1  0
 15 16  1  0
 15 17  1  0
 15 18  1  0
 18 19  1  0
 18 20  1  0
 18 21  1  0
 21 22  1  0
 21 23  1  0
 21 24  1  0
 24 25  1  6
 24 26  1  0
 26 27  1  0
 26 28  1  0
 26  2  1  0
 24 10  1  0
M  END
$$$$

     RDKit          2D

 27 26  0  0  0  0  0  0  0  0999 V2000
   -1.5000   -1.5000    0.0000 O   0  0  0  0  0  0  0  0  0  0  0  0
    0.0000   -1.5000    0.0000 S   0  0  0  0  0  0  0  0  0  0  0  0
    0.7912   -1.5972    0.0000 O   0  0  0  0  0  0  0  0  0  0  0  0
   -0.0000   -3.0000    0.0000 O   0  0  0  0  0  0  0  0  0  0  0  0
    0.0000    0.0000    0.0000 C   0  0  0  0  0  0  0  0  0  0  0  0
   -1.5000    0.0000    0.0000 F   0  0  0  0  0  0  0  0  0  0  0  0
    0.0000    1.5000    0.0000 F   0  0  0  0  0  0  0  0  0  0  0  0
    1.5000    0.0000    0.0000 C   0  0  0  0  0  0  0  0  0  0  0  0
    1.6080   -0.8791    0.0000 F   0  0  0  0  0  0  0  0  0  0  0  0
    1.5000    1.5000    0.0000 F   0  0  0  0  0  0  0  0  0  0  0  0
    3.0000    0.0000    0.0000 O   0  0  0  0  0  0  0  0  0  0  0  0
    3.7500    1.2990    0.0000 C   0  0  0  0  0  0  0  0  0  0  0  0
    2.4510    2.0490    0.0000 F   0  0  0  0  0  0  0  0  0  0  0  0
    5.0490    0.5490    0.0000 F   0  0  0  0  0  0  0  0  0  0  0  0
    4.5000    2.5981    0.0000 C   0  0  0  0  0  0  0  0  0  0  0  0
    5.7990    1.8481    0.0000 F   0  0  0  0  0  0  0  0  0  0  0  0
    3.2010    3.3481    0.0000 F   0  0  0  0  0  0  0  0  0  0  0  0
    5.2500    3.8971    0.0000 C   0  0  0  0  0  0  0  0  0  0  0  0
    6.5490    3.1471    0.0000 F   0  0  0  0  0  0  0  0  0  0  0  0
    3.9510    4.6471    0.0000 F   0  0  0  0  0  0  0  0  0  0  0  0
    6.0000    5.1962    0.0000 C   0  0  0  0  0  0  0  0  0  0  0  0
    4.7010    5.9462    0.0000 F   0  0  0  0  0  0  0  0  0  0  0  0
    7.2990    4.4462    0.0000 F   0  0  0  0  0  0  0  0  0  0  0  0
    6.7500    6.4952    0.0000 C   0  0  0  0  0  0  0  0  0  0  0  0
    7.5000    7.7942    0.0000 F   0  0  0  0  0  0  0  0  0  0  0  0
    8.0490    5.7452    0.0000 F   0  0  0  0  0  0  0  0  0  0  0  0
    5.4510    7.2452    0.0000 Cl  0  0  0  0  0  0  0  0  0  0  0  0
  1  2  2  0
  2  3  2  0
  2  4  1  0
  2  5  1  0
  5  6  1  0
  5  7  1  0
  5  8  1  0
  8  9  1  0
  8 10  1  0
  8 11  1  0
 11 12  1  0
 12 13  1  0
 12 14  1  0
 12 15  1  0
 15 16  1  0
 15 17  1  0
 15 18  1  0
 18 19  1  0
 18 20  1  0
 18 21  1  0
 21 22  1  0
 21 23  1  0
 21 24  1  0
 24 25  1  0
 24 26  1  0
 24 27  1  0
M  END
$$$$

     RDKit          2D

 14 13  0  0  0  0  0  0  0  0999 V2000
   -0.0000   -1.5000    0.0000 F   0  0  0  0  0  0  0  0  0  0  0  0
    0.0000    0.0000    0.0000 C   0  0  0  0  0  0  0  0  0  0  0  0
   -1.2990    0.7500    0.0000 O   0  0  0  0  0  0  0  0  0  0  0  0
   -2.5981    0.0000    0.0000 C   0  0  0  0  0  0  0  0  0  0  0  0
   -1.8481   -1.2990    0.0000 F   0  0  0  0  0  0  0  0  0  0  0  0
   -3.3481    1.2990    0.0000 F   0  0  0  0  0  0  0  0  0  0  0  0
   -3.8971   -0.7500    0.0000 C   0  0  0  0  0  0  0  0  0  0  0  0
   -5.1962   -1.5000    0.0000 F   0  0  0  0  0  0  0  0  0  0  0  0
   -3.1471   -2.0490    0.0000 F   0  0  0  0  0  0  0  0  0  0  0  0
   -4.6471    0.5490    0.0000 F   0  0  0  0  0  0  0  0  0  0  0  0
    1.2990    0.7500    0.0000 C   0  0  0  0  0  0  0  0  0  0  0  0
    2.5981    1.5000    0.0000 F   0  0  0  0  0  0  0  0  0  0  0  0
    2.0490   -0.5490    0.0000 F   0  0  0  0  0  0  0  0  0  0  0  0
    0.5490    2.0490    0.0000 F   0  0  0  0  0  0  0  0  0  0  0  0
  1  2  1  0
  2  3  1  0
  3  4  1  0
  4  5  1  0
  4  6  1  0
  4  7  1  0
  7  8  1  0
  7  9  1  0
  7 10  1  0
  2 11  1  0
 11 12  1  0
 11 13  1  0
 11 14  1  0
M  END
$$$$

     RDKit          2D

 49 52  0  0  0  0  0  0  0  0999 V2000
   -5.2020   -8.5535    0.0000 C   0  0  0  0  0  0  0  0  0  0  0  0
   -4.8901   -7.0863    0.0000 C   0  0  0  0  0  0  0  0  0  0  0  0
   -6.0048   -6.0826    0.0000 C   0  0  0  0  0  0  0  0  0  0  0  0
   -7.4314   -6.5461    0.0000 C   0  0  0  0  0  0  0  0  0  0  0  0
   -8.5461   -5.5424    0.0000 C   0  0  0  0  0  0  0  0  0  0  0  0
   -8.2343   -4.0752    0.0000 O   0  0  0  0  0  0  0  0  0  0  0  0
   -9.9727   -6.0059    0.0000 O   0  0  0  0  0  0  0  0  0  0  0  0
  -11.0874   -5.0022    0.0000 C   0  0  0  0  0  0  0  0  0  0  0  0
  -12.5140   -5.4658    0.0000 C   0  0  0  0  0  0  0  0  0  0  0  0
  -13.9406   -5.9293    0.0000 F   0  0  0  0  0  0  0  0  0  0  0  0
  -12.9775   -4.0392    0.0000 F   0  0  0  0  0  0  0  0  0  0  0  0
  -12.0505   -6.8923    0.0000 F   0  0  0  0  0  0  0  0  0  0  0  0
  -10.7756   -3.5350    0.0000 C   0  0  0  0  0  0  0  0  0  0  0  0
  -10.4637   -2.0678    0.0000 F   0  0  0  0  0  0  0  0  0  0  0  0
  -12.2428   -3.2231    0.0000 F   0  0  0  0  0  0  0  0  0  0  0  0
   -9.3083   -3.8469    0.0000 F   0  0  0  0  0  0  0  0  0  0  0  0
   -3.4635   -6.6227    0.0000 C   0  0  0  0  0  0  0  0  0  0  0  0
   -2.2500   -7.5044    0.0000 C   0  0  0  0  0  0  0  0  0  0  0  0
   -1.0365   -6.6227    0.0000 C   0  0  0  0  0  0  0  0  0  0  0  0
   -1.5000   -5.1962    0.0000 C   0  0  0  0  0  0  0  0  0  0  0  0
   -0.7500   -3.8971    0.0000 C   0  0  0  0  0  0  0  0  0  0  0  0
    0.7500   -3.8971    0.0000 C   0  0  0  0  0  0  0  0  0  0  0  0
    1.5000   -2.5981    0.0000 C   0  0  0  0  0  0  0  0  0  0  0  0
    3.0000   -2.5981    0.0000 O   0  0  0  0  0  0  0  0  0  0  0  0
    3.7500   -3.8971    0.0000 C   0  0  0  0  0  0  0  0  0  0  0  0
    3.0000   -5.1962    0.0000 O   0  0  0  0  0  0  0  0  0  0  0  0
    5.2500   -3.8971    0.0000 C   0  0  0  0  0  0  0  0  0  0  0  0
    6.7500   -3.8971    0.0000 F   0  0  0  0  0  0  0  0  0  0  0  0
    5.2500   -5.3971    0.0000 F   0  0  0  0  0  0  0  0  0  0  0  0
    5.2500   -2.3971    0.0000 F   0  0  0  0  0  0  0  0  0  0  0  0
    0.7500   -1.2990    0.0000 C   0  0  0  0  0  0  0  0  0  0  0  0
    1.5000    0.0000    0.0000 C   0  0  0  0  0  0  0  0  0  0  0  0
    0.7500    1.2990    0.0000 C   0  0  0  0  0  0  0  0  0  0  0  0
    1.5000    2.5981    0.0000 O   0  0  0  0  0  0  0  0  0  0  0  0
    3.0000    2.5981    0.0000 C   0  0  0  0  0  0  0  0  0  0  0  0
    3.7500    1.2990    0.0000 O   0  0  0  0  0  0  0  0  0  0  0  0
    3.7500    3.8971    0.0000 C   0  0  0  0  0  0  0  0  0  0  0  0
    4.5000    5.1962    0.0000 F   0  0  0  0  0  0  0  0  0  0  0  0
    5.0490    3.1471    0.0000 F   0  0  0  0  0  0  0  0  0  0  0  0
    2.4510    4.6471    0.0000 F   0  0  0  0  0  0  0  0  0  0  0  0
   -0.7500    1.2990    0.0000 C   0  0  0  0  0  0  0  0  0  0  0  0
   -1.5000    0.0000    0.0000 C   0  0  0  0  0  0  0  0  0  0  0  0
   -0.7500   -1.2990    0.0000 C   0  0  0  0  0  0  0  0  0  0  0  0
   -2.2500   -1.2990    0.0000 C   0  0  0  0  0  0  0  0  0  0  0  0
   -1.5000   -2.5981    0.0000 C   0  0  0  0  0  0  0  0  0  0  0  0
   -3.0000   -2.5981    0.0000 C   0  0  0  0  0  0  0  0  0  0  0  0
   -3.7500   -3.8971    0.0000 C   0  0  0  0  0  0  0  0  0  0  0  0
   -3.0000   -5.1962    0.0000 C   0  0  0  0  0  0  0  0  0  0  0  0
   -4.4918   -5.3529    0.0000 C   0  0  0  0  0  0  0  0  0  0  0  0
  1  2  1  0
  2  3  1  0
  3  4  1  0
  4  5  1  0
  5  6  2  0
  5  7  1  0
  7  8  1  0
  8  9  1  0
  9 10  1  0
  9 11  1  0
  9 12  1  0
  8 13  1  0
 13 14  1  0
 13 15  1  0
 13 16  1  0
 17  2  1  6
 17 18  1  0
 18 19  1  0
 20 19  1  6
 20 21  1  0
 21 22  1  1
 22 23  1  0
 23 24  1  6
 24 25  1  0
 25 26  2  0
 25 27  1  0
 27 28  1  0
 27 29  1  0
 27 30  1  0
 23 31  1  0
 31 32  1  1
 32 33  1  0
 33 34  1  1
 34 35  1  0
 35 36  2  0
 35 37  1  0
 37 38  1  0
 37 39  1  0
 37 40  1  0
 33 41  1  0
 41 42  1  0
 42 43  1  0
 43 44  1  6
 43 45  1  0
 45 46  1  6
 46 47  1  0
 47 48  1  0
 48 49  1  6
 48 17  1  0
 48 20  1  0
 45 21  1  0
 43 31  1  0
M  END
$$$$

     RDKit          2D

 29 28  0  0  0  0  0  0  0  0999 V2000
   -1.5000   -1.5000    0.0000 O   0  0  0  0  0  0  0  0  0  0  0  0
    0.0000   -1.5000    0.0000 S   0  0  0  0  0  0  0  0  0  0  0  0
    0.7912   -1.5972    0.0000 O   0  0  0  0  0  0  0  0  0  0  0  0
   -0.0000   -3.0000    0.0000 O   0  0  0  0  0  0  0  0  0  0  0  0
    0.0000    0.0000    0.0000 C   0  0  0  0  0  0  0  0  0  0  0  0
   -1.5000    0.0000    0.0000 F   0  0  0  0  0  0  0  0  0  0  0  0
    0.0000    1.5000    0.0000 F   0  0  0  0  0  0  0  0  0  0  0  0
    1.5000    0.0000    0.0000 C   0  0  0  0  0  0  0  0  0  0  0  0
    1.5000    1.5000    0.0000 F   0  0  0  0  0  0  0  0  0  0  0  0
    1.6080   -0.8791    0.0000 F   0  0  0  0  0  0  0  0  0  0  0  0
    3.0000    0.0000    0.0000 C   0  0  0  0  0  0  0  0  0  0  0  0
    2.8172   -1.4888    0.0000 F   0  0  0  0  0  0  0  0  0  0  0  0
    2.8172    1.4888    0.0000 F   0  0  0  0  0  0  0  0  0  0  0  0
    4.5000    0.0000    0.0000 C   0  0  0  0  0  0  0  0  0  0  0  0
    4.5000   -1.5000    0.0000 C   0  0  0  0  0  0  0  0  0  0  0  0
    4.5000   -3.0000    0.0000 F   0  0  0  0  0  0  0  0  0  0  0  0
    5.9888   -1.6828    0.0000 F   0  0  0  0  0  0  0  0  0  0  0  0
    3.0112   -1.6828    0.0000 F   0  0  0  0  0  0  0  0  0  0  0  0
    4.5000    1.5000    0.0000 C   0  0  0  0  0  0  0  0  0  0  0  0
    4.5000    3.0000    0.0000 F   0  0  0  0  0  0  0  0  0  0  0  0
    5.9888    1.6828    0.0000 F   0  0  0  0  0  0  0  0  0  0  0  0
    3.0112    1.6828    0.0000 F   0  0  0  0  0  0  0  0  0  0  0  0
    6.0000    0.0000    0.0000 C   0  0  0  0  0  0  0  0  0  0  0  0
    6.1828    1.4888    0.0000 F   0  0  0  0  0  0  0  0  0  0  0  0
    6.1828   -1.4888    0.0000 F   0  0  0  0  0  0  0  0  0  0  0  0
    7.5000    0.0000    0.0000 C   0  0  0  0  0  0  0  0  0  0  0  0
    9.0000    0.0000    0.0000 F   0  0  0  0  0  0  0  0  0  0  0  0
    7.5000   -1.5000    0.0000 F   0  0  0  0  0  0  0  0  0  0  0  0
    7.5000    1.5000    0.0000 F   0  0  0  0  0  0  0  0  0  0  0  0
  1  2  2  0
  2  3  2  0
  2  4  1  0
  2  5  1  0
  5  6  1  0
  5  7  1  0
  5  8  1  0
  8  9  1  0
  8 10  1  0
  8 11  1  0
 11 12  1  0
 11 13  1  0
 11 14  1  0
 14 15  1  0
 15 16  1  0
 15 17  1  0
 15 18  1  0
 14 19  1  0
 19 20  1  0
 19 21  1  0
 19 22  1  0
 14 23  1  0
 23 24  1  0
 23 25  1  0
 23 26  1  0
 26 27  1  0
 26 28  1  0
 26 29  1  0
M  END
$$$$

     RDKit          2D

  9  8  0  0  0  0  0  0  0  0999 V2000
    3.8971    2.2500    0.0000 F   0  0  0  0  0  0  0  0  0  0  0  0
    2.5981    1.5000    0.0000 C   0  0  0  0  0  0  0  0  0  0  0  0
    1.8481    2.7990    0.0000 F   0  0  0  0  0  0  0  0  0  0  0  0
    3.3481    0.2010    0.0000 Cl  0  0  0  0  0  0  0  0  0  0  0  0
    1.2990    0.7500    0.0000 C   0  0  0  0  0  0  0  0  0  0  0  0
    2.0490   -0.5490    0.0000 F   0  0  0  0  0  0  0  0  0  0  0  0
    0.5490    2.0490    0.0000 F   0  0  0  0  0  0  0  0  0  0  0  0
    0.0000    0.0000    0.0000 C   0  0  0  0  0  0  0  0  0  0  0  0
   -1.2990    0.7500    0.0000 Cl  0  0  0  0  0  0  0  0  0  0  0  0
  1  2  1  0
  2  3  1  0
  2  4  1  0
  2  5  1  0
  5  6  1  0
  5  7  1  0
  5  8  1  0
  8  9  1  0
M  END
$$$$

     RDKit          2D

  8  7  0  0  0  0  0  0  0  0999 V2000
    1.2990    2.2500    0.0000 F   0  0  0  0  0  0  0  0  0  0  0  0
    1.2990    0.7500    0.0000 C   0  0  0  0  0  0  0  0  0  0  0  0
    0.0000    0.0000    0.0000 C   0  0  0  0  0  0  0  0  0  0  0  0
   -1.2990    0.7500    0.0000 Cl  0  0  0  0  0  0  0  0  0  0  0  0
    2.5981   -0.0000    0.0000 C   0  0  0  0  0  0  0  0  0  0  0  0
    3.8971   -0.7500    0.0000 F   0  0  0  0  0  0  0  0  0  0  0  0
    3.3481    1.2990    0.0000 F   0  0  0  0  0  0  0  0  0  0  0  0
    1.8481   -1.2990    0.0000 F   0  0  0  0  0  0  0  0  0  0  0  0
  1  2  1  0
  2  3  1  0
  3  4  1  0
  2  5  1  0
  5  6  1  0
  5  7  1  0
  5  8  1  0
M  END
$$$$

     RDKit          2D

 16 16  0  0  0  0  0  0  0  0999 V2000
    3.0000    0.0000    0.0000 F   0  0  0  0  0  0  0  0  0  0  0  0
    1.5000    0.0000    0.0000 C   0  0  0  0  0  0  0  0  0  0  0  0
    0.7500   -1.2990    0.0000 C   0  0  0  0  0  0  0  0  0  0  0  0
    2.1595   -1.8121    0.0000 F   0  0  0  0  0  0  0  0  0  0  0  0
    0.4895   -2.7762    0.0000 F   0  0  0  0  0  0  0  0  0  0  0  0
   -0.7500   -1.2990    0.0000 C   0  0  0  0  0  0  0  0  0  0  0  0
   -0.4895   -2.7762    0.0000 F   0  0  0  0  0  0  0  0  0  0  0  0
   -2.1595   -1.8121    0.0000 F   0  0  0  0  0  0  0  0  0  0  0  0
   -1.5000    0.0000    0.0000 C   0  0  0  0  0  0  0  0  0  0  0  0
   -3.0000    0.0000    0.0000 F   0  0  0  0  0  0  0  0  0  0  0  0
   -0.7500    1.2990    0.0000 C   0  0  0  0  0  0  0  0  0  0  0  0
   -2.1595    1.8121    0.0000 F   0  0  0  0  0  0  0  0  0  0  0  0
   -0.4895    2.7762    0.0000 F   0  0  0  0  0  0  0  0  0  0  0  0
    0.7500    1.2990    0.0000 C   0  0  0  0  0  0  0  0  0  0  0  0
    0.4895    2.7762    0.0000 F   0  0  0  0  0  0  0  0  0  0  0  0
    2.1595    1.8121    0.0000 F   0  0  0  0  0  0  0  0  0  0  0  0
  1  2  1  0
  2  3  1  0
  3  4  1  0
  3  5  1  0
  3  6  1  0
  6  7  1  0
  6  8  1  0
  6  9  1  0
  9 10  1  0
  9 11  1  0
 11 12  1  0
 11 13  1  0
 11 14  1  0
 14 15  1  0
 14 16  1  0
 14  2  1  0
M  END
$$$$

     RDKit          2D

 27 27  0  0  0  0  0  0  0  0999 V2000
    5.9114    1.7435    0.0000 O   0  0  0  0  0  0  0  0  0  0  0  0
    4.7623    0.7793    0.0000 S   0  0  0  0  0  0  0  0  0  0  0  0
    4.2187    0.1963    0.0000 O   0  0  0  0  0  0  0  0  0  0  0  0
    5.7265   -0.3698    0.0000 O   0  0  0  0  0  0  0  0  0  0  0  0
    3.7981    1.9284    0.0000 C   0  0  0  0  0  0  0  0  0  0  0  0
    4.9472    2.8925    0.0000 F   0  0  0  0  0  0  0  0  0  0  0  0
    2.8340    3.0774    0.0000 F   0  0  0  0  0  0  0  0  0  0  0  0
    2.6491    0.9642    0.0000 C   0  0  0  0  0  0  0  0  0  0  0  0
    3.1315    0.2213    0.0000 F   0  0  0  0  0  0  0  0  0  0  0  0
    1.8321    2.2222    0.0000 F   0  0  0  0  0  0  0  0  0  0  0  0
    1.5000    0.0000    0.0000 C   0  0  0  0  0  0  0  0  0  0  0  0
    2.6491   -0.9642    0.0000 F   0  0  0  0  0  0  0  0  0  0  0  0
    0.7500   -1.2990    0.0000 C   0  0  0  0  0  0  0  0  0  0  0  0
    2.1595   -1.8121    0.0000 F   0  0  0  0  0  0  0  0  0  0  0  0
    0.4895   -2.7762    0.0000 F   0  0  0  0  0  0  0  0  0  0  0  0
   -0.7500   -1.2990    0.0000 C   0  0  0  0  0  0  0  0  0  0  0  0
   -0.4895   -2.7762    0.0000 F   0  0  0  0  0  0  0  0  0  0  0  0
   -2.1595   -1.8121    0.0000 F   0  0  0  0  0  0  0  0  0  0  0  0
   -1.5000    0.0000    0.0000 C   0  0  0  0  0  0  0  0  0  0  0  0
   -2.6491   -0.9642    0.0000 F   0  0  0  0  0  0  0  0  0  0  0  0
   -2.6491    0.9642    0.0000 F   0  0  0  0  0  0  0  0  0  0  0  0
   -0.7500    1.2990    0.0000 C   0  0  0  0  0  0  0  0  0  0  0  0
   -2.1595    1.8121    0.0000 F   0  0  0  0  0  0  0  0  0  0  0  0
   -0.4895    2.7762    0.0000 F   0  0  0  0  0  0  0  0  0  0  0  0
    0.7500    1.2990    0.0000 C   0  0  0  0  0  0  0  0  0  0  0  0
    0.4895    2.7762    0.0000 F   0  0  0  0  0  0  0  0  0  0  0  0
    2.0865    1.9801    0.0000 F   0  0  0  0  0  0  0  0  0  0  0  0
  1  2  2  0
  2  3  2  0
  2  4  1  0
  2  5  1  0
  5  6  1  0
  5  7  1  0
  5  8  1  0
  8  9  1  0
  8 10  1  0
  8 11  1  0
 11 12  1  0
 11 13  1  0
 13 14  1  0
 13 15  1  0
 13 16  1  0
 16 17  1  0
 16 18  1  0
 16 19  1  0
 19 20  1  0
 19 21  1  0
 19 22  1  0
 22 23  1  0
 22 24  1  0
 22 25  1  0
 25 26  1  0
 25 27  1  0
 25 11  1  0
M  END
$$$$

     RDKit          2D

 43 42  0  0  0  0  0  0  0  0999 V2000
    5.2500    1.2990    0.0000 C   0  0  0  0  0  0  0  0  0  0  0  0
    4.5000    0.0000    0.0000 N   0  0  0  0  0  0  0  0  0  0  0  0
    5.2500   -1.2990    0.0000 C   0  0  0  0  0  0  0  0  0  0  0  0
    6.7500   -1.2990    0.0000 C   0  0  0  0  0  0  0  0  0  0  0  0
    7.5000   -0.0000    0.0000 O   0  0  0  0  0  0  0  0  0  0  0  0
    7.5000   -2.5981    0.0000 O   0  0  0  0  0  0  0  0  0  0  0  0
    3.0000    0.0000    0.0000 S   0  0  0  0  0  0  0  0  0  0  0  0
    3.0000   -1.5000    0.0000 O   0  0  0  0  0  0  0  0  0  0  0  0
    3.0000    1.5000    0.0000 O   0  0  0  0  0  0  0  0  0  0  0  0
    1.5000    0.0000    0.0000 C   0  0  0  0  0  0  0  0  0  0  0  0
    0.7500   -1.2990    0.0000 C   0  0  0  0  0  0  0  0  0  0  0  0
   -0.7500   -1.2990    0.0000 C   0  0  0  0  0  0  0  0  0  0  0  0
   -1.5000    0.0000    0.0000 C   0  0  0  0  0  0  0  0  0  0  0  0
   -3.0000    0.0000    0.0000 O   0  0  0  0  0  0  0  0  0  0  0  0
   -3.7500    1.2990    0.0000 C   0  0  0  0  0  0  0  0  0  0  0  0
   -2.4510    2.0490    0.0000 F   0  0  0  0  0  0  0  0  0  0  0  0
   -5.0490    0.5490    0.0000 F   0  0  0  0  0  0  0  0  0  0  0  0
   -4.5000    2.5981    0.0000 C   0  0  0  0  0  0  0  0  0  0  0  0
   -5.7990    1.8481    0.0000 F   0  0  0  0  0  0  0  0  0  0  0  0
   -3.2010    3.3481    0.0000 F   0  0  0  0  0  0  0  0  0  0  0  0
   -5.2500    3.8971    0.0000 C   0  0  0  0  0  0  0  0  0  0  0  0
   -3.9510    4.6471    0.0000 F   0  0  0  0  0  0  0  0  0  0  0  0
   -6.5490    3.1471    0.0000 F   0  0  0  0  0  0  0  0  0  0  0  0
   -6.0000    5.1962    0.0000 C   0  0  0  0  0  0  0  0  0  0  0  0
   -7.2990    4.4462    0.0000 F   0  0  0  0  0  0  0  0  0  0  0  0
   -4.7010    5.9462    0.0000 F   0  0  0  0  0  0  0  0  0  0  0  0
   -6.7500    6.4952    0.0000 C   0  0  0  0  0  0  0  0  0  0  0  0
   -5.4510    7.2452    0.0000 F   0  0  0  0  0  0  0  0  0  0  0  0
   -8.0490    5.7452    0.0000 F   0  0  0  0  0  0  0  0  0  0  0  0
   -7.5000    7.7942    0.0000 C   0  0  0  0  0  0  0  0  0  0  0  0
   -8.7990    7.0442    0.0000 F   0  0  0  0  0  0  0  0  0  0  0  0
   -6.2010    8.5442    0.0000 F   0  0  0  0  0  0  0  0  0  0  0  0
   -8.2500    9.0933    0.0000 C   0  0  0  0  0  0  0  0  0  0  0  0
   -6.9510    9.8433    0.0000 F   0  0  0  0  0  0  0  0  0  0  0  0
   -9.5490    8.3433    0.0000 F   0  0  0  0  0  0  0  0  0  0  0  0
   -9.0000   10.3923    0.0000 C   0  0  0  0  0  0  0  0  0  0  0  0
  -10.2990    9.6423    0.0000 F   0  0  0  0  0  0  0  0  0  0  0  0
   -7.7010   11.1423    0.0000 F   0  0  0  0  0  0  0  0  0  0  0  0
   -9.7500   11.6913    0.0000 C   0  0  0  0  0  0  0  0  0  0  0  0
  -11.2500   11.6913    0.0000 F   0  0  0  0  0  0  0  0  0  0  0  0
   -0.7500    1.2990    0.0000 C   0  0  0  0  0  0  0  0  0  0  0  0
    0.7500    1.2990    0.0000 C   0  0  0  0  0  0  0  0  0  0  0  0
    0.0000   12.6913    0.0000 Na  0  0  0  0  0 15  0  0  0  0  0  0
  1  2  1  0
  2  3  1  0
  3  4  1  0
  4  5  2  0
  4  6  1  0
  2  7  1  0
  7  8  2  0
  7  9  2  0
  7 10  1  0
 10 11  2  0
 11 12  1  0
 12 13  2  0
 13 14  1  0
 14 15  1  0
 15 16  1  0
 15 17  1  0
 15 18  1  0
 18 19  1  0
 18 20  1  0
 18 21  1  0
 21 22  1  0
 21 23  1  0
 21 24  1  0
 24 25  1  0
 24 26  1  0
 24 27  1  0
 27 28  1  0
 27 29  1  0
 27 30  1  0
 30 31  1  0
 30 32  1  0
 30 33  1  0
 33 34  1  0
 33 35  1  0
 33 36  1  0
 36 37  1  0
 36 38  1  0
 36 39  1  0
 39 40  1  0
 13 41  1  0
 41 42  2  0
 42 10  1  0
M  CHG  2   6  -1  43   1
M  END
$$$$

     RDKit          2D

 44 44  0  0  0  0  0  0  0  0999 V2000
    9.0000    4.0981    0.0000 C   0  0  0  0  0  0  0  0  0  0  0  0
    9.0000    2.5981    0.0000 N   0  0  0  0  0  0  0  0  0  0  0  0
    9.0000    1.0981    0.0000 C   0  0  0  0  0  0  0  0  0  0  0  0
   10.5000    2.5981    0.0000 C   0  0  0  0  0  0  0  0  0  0  0  0
    7.5000    2.5981    0.0000 C   0  0  0  0  0  0  0  0  0  0  0  0
    6.7500    1.2990    0.0000 C   0  0  0  0  0  0  0  0  0  0  0  0
    5.2500    1.2990    0.0000 C   0  0  0  0  0  0  0  0  0  0  0  0
    4.5000    0.0000    0.0000 N   0  0  0  0  0  0  0  0  0  0  0  0
    3.0000    0.0000    0.0000 S   0  0  0  0  0  0  0  0  0  0  0  0
    3.0000   -1.5000    0.0000 O   0  0  0  0  0  0  0  0  0  0  0  0
    3.0000    1.5000    0.0000 O   0  0  0  0  0  0  0  0  0  0  0  0
    1.5000    0.0000    0.0000 C   0  0  0  0  0  0  0  0  0  0  0  0
    0.7500   -1.2990    0.0000 C   0  0  0  0  0  0  0  0  0  0  0  0
   -0.7500   -1.2990    0.0000 C   0  0  0  0  0  0  0  0  0  0  0  0
   -1.5000    0.0000    0.0000 C   0  0  0  0  0  0  0  0  0  0  0  0
   -3.0000    0.0000    0.0000 O   0  0  0  0  0  0  0  0  0  0  0  0
   -3.7500    1.2990    0.0000 C   0  0  0  0  0  0  0  0  0  0  0  0
   -2.4510    2.0490    0.0000 F   0  0  0  0  0  0  0  0  0  0  0  0
   -5.0490    0.5490    0.0000 F   0  0  0  0  0  0  0  0  0  0  0  0
   -4.5000    2.5981    0.0000 C   0  0  0  0  0  0  0  0  0  0  0  0
   -5.7990    1.8481    0.0000 F   0  0  0  0  0  0  0  0  0  0  0  0
   -3.2010    3.3481    0.0000 F   0  0  0  0  0  0  0  0  0  0  0  0
   -5.2500    3.8971    0.0000 C   0  0  0  0  0  0  0  0  0  0  0  0
   -3.9510    4.6471    0.0000 F   0  0  0  0  0  0  0  0  0  0  0  0
   -6.5490    3.1471    0.0000 F   0  0  0  0  0  0  0  0  0  0  0  0
   -6.0000    5.1962    0.0000 C   0  0  0  0  0  0  0  0  0  0  0  0
   -7.2990    4.4462    0.0000 F   0  0  0  0  0  0  0  0  0  0  0  0
   -4.7010    5.9462    0.0000 F   0  0  0  0  0  0  0  0  0  0  0  0
   -6.7500    6.4952    0.0000 C   0  0  0  0  0  0  0  0  0  0  0  0
   -5.4510    7.2452    0.0000 F   0  0  0  0  0  0  0  0  0  0  0  0
   -8.0490    5.7452    0.0000 F   0  0  0  0  0  0  0  0  0  0  0  0
   -7.5000    7.7942    0.0000 C   0  0  0  0  0  0  0  0  0  0  0  0
   -8.7990    7.0442    0.0000 F   0  0  0  0  0  0  0  0  0  0  0  0
   -6.2010    8.5442    0.0000 F   0  0  0  0  0  0  0  0  0  0  0  0
   -8.2500    9.0933    0.0000 C   0  0  0  0  0  0  0  0  0  0  0  0
   -6.9510    9.8433    0.0000 F   0  0  0  0  0  0  0  0  0  0  0  0
   -9.5490    8.3433    0.0000 F   0  0  0  0  0  0  0  0  0  0  0  0
   -9.0000   10.3923    0.0000 C   0  0  0  0  0  0  0  0  0  0  0  0
  -10.2990    9.6423    0.0000 F   0  0  0  0  0  0  0  0  0  0  0  0
   -7.7010   11.1423    0.0000 F   0  0  0  0  0  0  0  0  0  0  0  0
   -9.7500   11.6913    0.0000 C   0  0  0  0  0  0  0  0  0  0  0  0
  -11.2500   11.6913    0.0000 F   0  0  0  0  0  0  0  0  0  0  0  0
   -0.7500    1.2990    0.0000 C   0  0  0  0  0  0  0  0  0  0  0  0
    0.7500    1.2990    0.0000 C   0  0  0  0  0  0  0  0  0  0  0  0
  1  2  1  0
  2  3  1  0
  2  4  1  0
  2  5  1  0
  5  6  1  0
  6  7  1  0
  7  8  1  0
  8  9  1  0
  9 10  2  0
  9 11  2  0
  9 12  1  0
 12 13  2  0
 13 14  1  0
 14 15  2  0
 15 16  1  0
 16 17  1  0
 17 18  1  0
 17 19  1  0
 17 20  1  0
 20 21  1  0
 20 22  1  0
 20 23  1  0
 23 24  1  0
 23 25  1  0
 23 26  1  0
 26 27  1  0
 26 28  1  0
 26 29  1  0
 29 30  1  0
 29 31  1  0
 29 32  1  0
 32 33  1  0
 32 34  1  0
 32 35  1  0
 35 36  1  0
 35 37  1  0
 35 38  1  0
 38 39  1  0
 38 40  1  0
 38 41  1  0
 41 42  1  0
 15 43  1  0
 43 44  2  0
 44 12  1  0
M  CHG  1   2   1
M  END
$$$$

     RDKit          2D

 16 15  0  0  0  0  0  0  0  0999 V2000
   -0.0000   -1.5000    0.0000 O   0  0  0  0  0  0  0  0  0  0  0  0
    0.0000    0.0000    0.0000 C   0  0  0  0  0  0  0  0  0  0  0  0
   -1.2990    0.7500    0.0000 O   0  0  0  0  0  0  0  0  0  0  0  0
    1.2990    0.7500    0.0000 C   0  0  0  0  0  0  0  0  0  0  0  0
    1.2990    2.2500    0.0000 F   0  0  0  0  0  0  0  0  0  0  0  0
    2.5981   -0.0000    0.0000 O   0  0  0  0  0  0  0  0  0  0  0  0
    3.8971    0.7500    0.0000 C   0  0  0  0  0  0  0  0  0  0  0  0
    3.1471    2.0490    0.0000 F   0  0  0  0  0  0  0  0  0  0  0  0
    4.2432   -0.0653    0.0000 F   0  0  0  0  0  0  0  0  0  0  0  0
    5.1962    1.5000    0.0000 C   0  0  0  0  0  0  0  0  0  0  0  0
    6.4952    2.2500    0.0000 F   0  0  0  0  0  0  0  0  0  0  0  0
    4.4462    2.7990    0.0000 F   0  0  0  0  0  0  0  0  0  0  0  0
    5.9462    0.2010    0.0000 S   0  0  0  0  0  0  0  0  0  0  0  0
    7.2452    0.9510    0.0000 O   0  0  0  0  0  0  0  0  0  0  0  0
    5.3095   -0.2788    0.0000 O   0  0  0  0  0  0  0  0  0  0  0  0
    6.6962   -1.0981    0.0000 O   0  0  0  0  0  0  0  0  0  0  0  0
  1  2  2  0
  2  3  1  0
  2  4  1  0
  4  5  1  0
  4  6  1  0
  6  7  1  0
  7  8  1  0
  7  9  1  0
  7 10  1  0
 10 11  1  0
 10 12  1  0
 10 13  1  0
 13 14  2  0
 13 15  2  0
 13 16  1  0
M  END
$$$$

     RDKit          2D

 12 11  0  0  0  0  0  0  0  0999 V2000
   -0.7500   -1.2990    0.0000 F   0  0  0  0  0  0  0  0  0  0  0  0
    0.0000    0.0000    0.0000 C   0  0  0  0  0  0  0  0  0  0  0  0
    1.5000    0.0000    0.0000 C   0  0  0  0  0  0  0  0  0  0  0  0
    2.2500   -1.2990    0.0000 F   0  0  0  0  0  0  0  0  0  0  0  0
    2.2500    1.2990    0.0000 C   0  0  0  0  0  0  0  0  0  0  0  0
    3.0000    2.5981    0.0000 F   0  0  0  0  0  0  0  0  0  0  0  0
    1.2797    2.0303    0.0000 F   0  0  0  0  0  0  0  0  0  0  0  0
    3.5490    0.5490    0.0000 F   0  0  0  0  0  0  0  0  0  0  0  0
   -0.7500    1.2990    0.0000 C   0  0  0  0  0  0  0  0  0  0  0  0
   -1.5000    2.5981    0.0000 F   0  0  0  0  0  0  0  0  0  0  0  0
   -2.0490    0.5490    0.0000 F   0  0  0  0  0  0  0  0  0  0  0  0
    0.2203    2.0303    0.0000 F   0  0  0  0  0  0  0  0  0  0  0  0
  1  2  1  0
  2  3  2  0
  3  4  1  0
  3  5  1  0
  5  6  1  0
  5  7  1  0
  5  8  1  0
  2  9  1  0
  9 10  1  0
  9 11  1  0
  9 12  1  0
M  END
$$$$

     RDKit          2D

 73 72  0  0  0  0  0  0  0  0999 V2000
   -1.2990    0.7500    0.0000 O   0  0  0  0  0  0  0  0  0  0  0  0
    0.0000    0.0000    0.0000 C   0  0  0  0  0  0  0  0  0  0  0  0
    1.2990    0.7500    0.0000 C   0  0  0  0  0  0  0  0  0  0  0  0
    1.2990    2.2500    0.0000 O   0  0  0  0  0  0  0  0  0  0  0  0
    2.5981   -0.0000    0.0000 C   0  0  0  0  0  0  0  0  0  0  0  0
    2.5981   -1.5000    0.0000 O   0  0  0  0  0  0  0  0  0  0  0  0
    3.8971    0.7500    0.0000 C   0  0  0  0  0  0  0  0  0  0  0  0
    3.8971    2.2500    0.0000 O   0  0  0  0  0  0  0  0  0  0  0  0
    5.1962   -0.0000    0.0000 C   0  0  0  0  0  0  0  0  0  0  0  0
    5.1962   -1.5000    0.0000 O   0  0  0  0  0  0  0  0  0  0  0  0
    6.4952    0.7500    0.0000 C   0  0  0  0  0  0  0  0  0  0  0  0
    7.7942   -0.0000    0.0000 O   0  0  0  0  0  0  0  0  0  0  0  0
    9.0933    0.7500    0.0000 P   0  0  0  0  0  0  0  0  0  0  0  0
    8.3433    2.0490    0.0000 O   0  0  0  0  0  0  0  0  0  0  0  0
    9.8433   -0.5490    0.0000 O   0  0  0  0  0  0  0  0  0  0  0  0
   10.3923    1.5000    0.0000 O   0  0  0  0  0  0  0  0  0  0  0  0
   10.3923    3.0000    0.0000 C   0  0  0  0  0  0  0  0  0  0  0  0
   11.6913    3.7500    0.0000 C   0  0  0  0  0  0  0  0  0  0  0  0
   11.6913    5.2500    0.0000 C   0  0  0  0  0  0  0  0  0  0  0  0
   12.9904    6.0000    0.0000 C   0  0  0  0  0  0  0  0  0  0  0  0
   12.9904    7.5000    0.0000 C   0  0  0  0  0  0  0  0  0  0  0  0
   14.2894    8.2500    0.0000 C   0  0  0  0  0  0  0  0  0  0  0  0
   13.5394    9.5490    0.0000 F   0  0  0  0  0  0  0  0  0  0  0  0
   15.0394    6.9510    0.0000 F   0  0  0  0  0  0  0  0  0  0  0  0
   15.5885    9.0000    0.0000 C   0  0  0  0  0  0  0  0  0  0  0  0
   16.3385    7.7010    0.0000 F   0  0  0  0  0  0  0  0  0  0  0  0
   14.8385   10.2990    0.0000 F   0  0  0  0  0  0  0  0  0  0  0  0
   16.8875    9.7500    0.0000 C   0  0  0  0  0  0  0  0  0  0  0  0
   16.1375   11.0490    0.0000 F   0  0  0  0  0  0  0  0  0  0  0  0
   17.6375    8.4510    0.0000 F   0  0  0  0  0  0  0  0  0  0  0  0
   18.1865   10.5000    0.0000 C   0  0  0  0  0  0  0  0  0  0  0  0
   18.9365    9.2010    0.0000 F   0  0  0  0  0  0  0  0  0  0  0  0
   17.4365   11.7990    0.0000 F   0  0  0  0  0  0  0  0  0  0  0  0
   19.4856   11.2500    0.0000 C   0  0  0  0  0  0  0  0  0  0  0  0
   18.7356   12.5490    0.0000 F   0  0  0  0  0  0  0  0  0  0  0  0
   20.2356    9.9510    0.0000 F   0  0  0  0  0  0  0  0  0  0  0  0
   20.7846   12.0000    0.0000 C   0  0  0  0  0  0  0  0  0  0  0  0
   21.5346   10.7010    0.0000 F   0  0  0  0  0  0  0  0  0  0  0  0
   20.0346   13.2990    0.0000 F   0  0  0  0  0  0  0  0  0  0  0  0
   22.0836   12.7500    0.0000 C   0  0  0  0  0  0  0  0  0  0  0  0
   21.3336   14.0490    0.0000 F   0  0  0  0  0  0  0  0  0  0  0  0
   22.8336   11.4510    0.0000 F   0  0  0  0  0  0  0  0  0  0  0  0
   23.3827   13.5000    0.0000 C   0  0  0  0  0  0  0  0  0  0  0  0
   24.6817   14.2500    0.0000 F   0  0  0  0  0  0  0  0  0  0  0  0
   24.1327   12.2010    0.0000 F   0  0  0  0  0  0  0  0  0  0  0  0
   22.6327   14.7990    0.0000 F   0  0  0  0  0  0  0  0  0  0  0  0
    9.0933    3.7500    0.0000 C   0  0  0  0  0  0  0  0  0  0  0  0
    9.0933    5.2500    0.0000 C   0  0  0  0  0  0  0  0  0  0  0  0
    7.7942    6.0000    0.0000 C   0  0  0  0  0  0  0  0  0  0  0  0
    8.5442    7.2990    0.0000 F   0  0  0  0  0  0  0  0  0  0  0  0
    7.0442    4.7010    0.0000 F   0  0  0  0  0  0  0  0  0  0  0  0
    6.4952    6.7500    0.0000 C   0  0  0  0  0  0  0  0  0  0  0  0
    5.7452    5.4510    0.0000 F   0  0  0  0  0  0  0  0  0  0  0  0
    7.2452    8.0490    0.0000 F   0  0  0  0  0  0  0  0  0  0  0  0
    5.1962    7.5000    0.0000 C   0  0  0  0  0  0  0  0  0  0  0  0
    5.9462    8.7990    0.0000 F   0  0  0  0  0  0  0  0  0  0  0  0
    4.4462    6.2010    0.0000 F   0  0  0  0  0  0  0  0  0  0  0  0
    3.8971    8.2500    0.0000 C   0  0  0  0  0  0  0  0  0  0  0  0
    3.1471    6.9510    0.0000 F   0  0  0  0  0  0  0  0  0  0  0  0
    4.6471    9.5490    0.0000 F   0  0  0  0  0  0  0  0  0  0  0  0
    2.5981    9.0000    0.0000 C   0  0  0  0  0  0  0  0  0  0  0  0
    3.3481   10.2990    0.0000 F   0  0  0  0  0  0  0  0  0  0  0  0
    1.8481    7.7010    0.0000 F   0  0  0  0  0  0  0  0  0  0  0  0
    1.2990    9.7500    0.0000 C   0  0  0  0  0  0  0  0  0  0  0  0
    0.5490    8.4510    0.0000 F   0  0  0  0  0  0  0  0  0  0  0  0
    2.0490   11.0490    0.0000 F   0  0  0  0  0  0  0  0  0  0  0  0
    0.0000   10.5000    0.0000 C   0  0  0  0  0  0  0  0  0  0  0  0
    0.7500   11.7990    0.0000 F   0  0  0  0  0  0  0  0  0  0  0  0
   -0.7500    9.2010    0.0000 F   0  0  0  0  0  0  0  0  0  0  0  0
   -1.2990   11.2500    0.0000 C   0  0  0  0  0  0  0  0  0  0  0  0
   -2.5981   12.0000    0.0000 F   0  0  0  0  0  0  0  0  0  0  0  0
   -2.0490    9.9510    0.0000 F   0  0  0  0  0  0  0  0  0  0  0  0
   -0.5490   12.5490    0.0000 F   0  0  0  0  0  0  0  0  0  0  0  0
  1  2  2  0
  2  3  1  0
  3  4  1  6
  3  5  1  0
  5  6  1  6
  5  7  1  0
  7  8  1  1
  7  9  1  0
  9 10  1  1
  9 11  1  0
 11 12  1  0
 12 13  1  0
 13 14  2  0
 13 15  1  0
 13 16  1  0
 16 17  1  0
 17 18  1  0
 18 19  1  0
 19 20  1  0
 20 21  1  0
 21 22  1  0
 22 23  1  0
 22 24  1  0
 22 25  1  0
 25 26  1  0
 25 27  1  0
 25 28  1  0
 28 29  1  0
 28 30  1  0
 28 31  1  0
 31 32  1  0
 31 33  1  0
 31 34  1  0
 34 35  1  0
 34 36  1  0
 34 37  1  0
 37 38  1  0
 37 39  1  0
 37 40  1  0
 40 41  1  0
 40 42  1  0
 40 43  1  0
 43 44  1  0
 43 45  1  0
 43 46  1  0
 17 47  1  0
 47 48  1  0
 48 49  1  0
 49 50  1  0
 49 51  1  0
 49 52  1  0
 52 53  1  0
 52 54  1  0
 52 55  1  0
 55 56  1  0
 55 57  1  0
 55 58  1  0
 58 59  1  0
 58 60  1  0
 58 61  1  0
 61 62  1  0
 61 63  1  0
 61 64  1  0
 64 65  1  0
 64 66  1  0
 64 67  1  0
 67 68  1  0
 67 69  1  0
 67 70  1  0
 70 71  1  0
 70 72  1  0
 70 73  1  0
M  END
$$$$

     RDKit          2D

 26 24  0  0  0  0  0  0  0  0999 V2000
    2.2990   -1.5000    0.0000 O   0  0  0  0  0  0  0  0  0  0  0  0
    2.2990    0.0000    0.0000 C   0  0  0  0  0  0  0  0  0  0  0  0
    1.0000    0.7500    0.0000 O   0  0  0  0  0  0  0  0  0  0  0  0
    3.5981    0.7500    0.0000 C   0  0  0  0  0  0  0  0  0  0  0  0
    4.3481   -0.5490    0.0000 F   0  0  0  0  0  0  0  0  0  0  0  0
    2.8481    2.0490    0.0000 F   0  0  0  0  0  0  0  0  0  0  0  0
    4.8971    1.5000    0.0000 C   0  0  0  0  0  0  0  0  0  0  0  0
    4.1471    2.7990    0.0000 F   0  0  0  0  0  0  0  0  0  0  0  0
    5.6471    0.2010    0.0000 F   0  0  0  0  0  0  0  0  0  0  0  0
    6.1962    2.2500    0.0000 C   0  0  0  0  0  0  0  0  0  0  0  0
    6.9462    0.9510    0.0000 F   0  0  0  0  0  0  0  0  0  0  0  0
    5.4462    3.5490    0.0000 F   0  0  0  0  0  0  0  0  0  0  0  0
    7.4952    3.0000    0.0000 C   0  0  0  0  0  0  0  0  0  0  0  0
    6.7452    4.2990    0.0000 F   0  0  0  0  0  0  0  0  0  0  0  0
    8.2452    1.7010    0.0000 F   0  0  0  0  0  0  0  0  0  0  0  0
    8.7942    3.7500    0.0000 C   0  0  0  0  0  0  0  0  0  0  0  0
    9.5442    2.4510    0.0000 F   0  0  0  0  0  0  0  0  0  0  0  0
    8.0442    5.0490    0.0000 F   0  0  0  0  0  0  0  0  0  0  0  0
   10.0933    4.5000    0.0000 C   0  0  0  0  0  0  0  0  0  0  0  0
    9.3433    5.7990    0.0000 F   0  0  0  0  0  0  0  0  0  0  0  0
   10.8433    3.2010    0.0000 F   0  0  0  0  0  0  0  0  0  0  0  0
   11.3923    5.2500    0.0000 C   0  0  0  0  0  0  0  0  0  0  0  0
   12.6913    6.0000    0.0000 F   0  0  0  0  0  0  0  0  0  0  0  0
   12.1423    3.9510    0.0000 F   0  0  0  0  0  0  0  0  0  0  0  0
   10.6423    6.5490    0.0000 F   0  0  0  0  0  0  0  0  0  0  0  0
    0.0000    0.0000    0.0000 Li  0  0  0  0  0 15  0  0  0  0  0  0
  1  2  2  0
  2  3  1  0
  2  4  1  0
  4  5  1  0
  4  6  1  0
  4  7  1  0
  7  8  1  0
  7  9  1  0
  7 10  1  0
 10 11  1  0
 10 12  1  0
 10 13  1  0
 13 14  1  0
 13 15  1  0
 13 16  1  0
 16 17  1  0
 16 18  1  0
 16 19  1  0
 19 20  1  0
 19 21  1  0
 19 22  1  0
 22 23  1  0
 22 24  1  0
 22 25  1  0
M  CHG  2   3  -1  26   1
M  END
$$$$

     RDKit          2D

 12 12  0  0  0  0  0  0  0  0999 V2000
    2.7760    0.0000    0.0000 C   0  0  0  0  0  0  0  0  0  0  0  0
    1.2760    0.0000    0.0000 C   0  0  0  0  0  0  0  0  0  0  0  0
    0.3943    1.2135    0.0000 N   0  0  0  0  0  0  0  0  0  0  0  0
   -1.0323    0.7500    0.0000 C   0  0  0  0  0  0  0  0  0  0  0  0
   -1.0323   -0.7500    0.0000 C   0  0  0  0  0  0  0  0  0  0  0  0
    0.3943   -1.2135    0.0000 N   0  0  0  0  0  0  0  0  0  0  0  0
    0.8578   -2.6401    0.0000 C   0  0  0  0  0  0  0  0  0  0  0  0
    2.2844   -2.1766    0.0000 F   0  0  0  0  0  0  0  0  0  0  0  0
   -0.5688   -3.1036    0.0000 F   0  0  0  0  0  0  0  0  0  0  0  0
    1.3213   -4.0667    0.0000 C   0  0  0  0  0  0  0  0  0  0  0  0
    2.7886   -4.3786    0.0000 F   0  0  0  0  0  0  0  0  0  0  0  0
    0.3177   -5.1814    0.0000 F   0  0  0  0  0  0  0  0  0  0  0  0
  1  2  1  0
  2  3  2  0
  3  4  1  0
  4  5  2  0
  5  6  1  0
  6  7  1  0
  7  8  1  0
  7  9  1  0
  7 10  1  0
 10 11  1  0
 10 12  1  0
  6  2  1  0
M  END
$$$$

     RDKit          2D

 39 40  0  0  0  0  0  0  0  0999 V2000
    4.5000    0.0000    0.0000 N   0  0  0  0  0  0  0  0  0  0  0  0
    3.0000    0.0000    0.0000 C   0  0  0  0  0  0  0  0  0  0  0  0
    1.5000    0.0000    0.0000 C   0  0  0  0  0  0  0  0  0  0  0  0
    0.7500   -1.2990    0.0000 C   0  0  0  0  0  0  0  0  0  0  0  0
   -0.7500   -1.2990    0.0000 C   0  0  0  0  0  0  0  0  0  0  0  0
   -1.5000    0.0000    0.0000 C   0  0  0  0  0  0  0  0  0  0  0  0
   -3.0000    0.0000    0.0000 N   0  0  0  0  0  0  0  0  0  0  0  0
   -3.7500    1.2990    0.0000 C   0  0  0  0  0  0  0  0  0  0  0  0
   -3.0000    2.5981    0.0000 O   0  0  0  0  0  0  0  0  0  0  0  0
   -5.2500    1.2990    0.0000 C   0  0  0  0  0  0  0  0  0  0  0  0
   -5.2500    2.7990    0.0000 F   0  0  0  0  0  0  0  0  0  0  0  0
   -5.2500   -0.2010    0.0000 F   0  0  0  0  0  0  0  0  0  0  0  0
   -6.7500    1.2990    0.0000 C   0  0  0  0  0  0  0  0  0  0  0  0
   -6.7500   -0.2010    0.0000 F   0  0  0  0  0  0  0  0  0  0  0  0
   -6.7500    2.7990    0.0000 F   0  0  0  0  0  0  0  0  0  0  0  0
   -8.2500    1.2990    0.0000 C   0  0  0  0  0  0  0  0  0  0  0  0
   -8.2500    2.7990    0.0000 F   0  0  0  0  0  0  0  0  0  0  0  0
   -8.2500   -0.2010    0.0000 F   0  0  0  0  0  0  0  0  0  0  0  0
   -9.7500    1.2990    0.0000 C   0  0  0  0  0  0  0  0  0  0  0  0
   -9.7500    2.7990    0.0000 F   0  0  0  0  0  0  0  0  0  0  0  0
   -9.7500   -0.2010    0.0000 F   0  0  0  0  0  0  0  0  0  0  0  0
  -11.2500    1.2990    0.0000 C   0  0  0  0  0  0  0  0  0  0  0  0
  -11.2500   -0.2010    0.0000 F   0  0  0  0  0  0  0  0  0  0  0  0
  -11.2500    2.7990    0.0000 F   0  0  0  0  0  0  0  0  0  0  0  0
  -12.7500    1.2990    0.0000 C   0  0  0  0  0  0  0  0  0  0  0  0
  -12.7500    2.7990    0.0000 F   0  0  0  0  0  0  0  0  0  0  0  0
  -12.7500   -0.2010    0.0000 F   0  0  0  0  0  0  0  0  0  0  0  0
  -14.2500    1.2990    0.0000 C   0  0  0  0  0  0  0  0  0  0  0  0
  -15.0000    0.0000    0.0000 O   0  0  0  0  0  0  0  0  0  0  0  0
  -15.0000    2.5981    0.0000 O   0  0  0  0  0  0  0  0  0  0  0  0
  -16.5000    2.5981    0.0000 C   0  0  0  0  0  0  0  0  0  0  0  0
  -17.2500    3.8971    0.0000 C   0  0  0  0  0  0  0  0  0  0  0  0
  -16.5000    5.1962    0.0000 C   0  0  0  0  0  0  0  0  0  0  0  0
  -17.2500    6.4952    0.0000 C   0  0  0  0  0  0  0  0  0  0  0  0
  -18.7500    6.4952    0.0000 C   0  0  0  0  0  0  0  0  0  0  0  0
  -19.5000    5.1962    0.0000 C   0  0  0  0  0  0  0  0  0  0  0  0
  -18.7500    3.8971    0.0000 C   0  0  0  0  0  0  0  0  0  0  0  0
   -0.7500    1.2990    0.0000 C   0  0  0  0  0  0  0  0  0  0  0  0
    0.7500    1.2990    0.0000 C   0  0  0  0  0  0  0  0  0  0  0  0
  1  2  3  0
  2  3  1  0
  3  4  2  0
  4  5  1  0
  5  6  2  0
  6  7  1  0
  7  8  1  0
  8  9  2  0
  8 10  1  0
 10 11  1  0
 10 12  1  0
 10 13  1  0
 13 14  1  0
 13 15  1  0
 13 16  1  0
 16 17  1  0
 16 18  1  0
 16 19  1  0
 19 20  1  0
 19 21  1  0
 19 22  1  0
 22 23  1  0
 22 24  1  0
 22 25  1  0
 25 26  1  0
 25 27  1  0
 25 28  1  0
 28 29  2  0
 28 30  1  0
 30 31  1  0
 31 32  1  0
 32 33  2  0
 33 34  1  0
 34 35  2  0
 35 36  1  0
 36 37  2  0
  6 38  1  0
 38 39  2  0
 39  3  1  0
 37 32  1  0
M  END
$$$$

     RDKit          2D

 17 17  0  0  0  0  0  0  0  0999 V2000
    3.0000    0.0000    0.0000 C   0  0  0  0  0  0  0  0  0  0  0  0
    1.5000    0.0000    0.0000 C   0  0  0  0  0  0  0  0  0  0  0  0
    0.7500   -1.2990    0.0000 C   0  0  0  0  0  0  0  0  0  0  0  0
   -0.7500   -1.2990    0.0000 C   0  0  0  0  0  0  0  0  0  0  0  0
   -1.5000   -2.5981    0.0000 C   0  0  0  0  0  0  0  0  0  0  0  0
   -1.5000    0.0000    0.0000 C   0  0  0  0  0  0  0  0  0  0  0  0
   -0.7500    1.2990    0.0000 C   0  0  0  0  0  0  0  0  0  0  0  0
   -1.5000    2.5981    0.0000 C   0  0  0  0  0  0  0  0  0  0  0  0
   -3.0000    2.5981    0.0000 O   0  0  0  0  0  0  0  0  0  0  0  0
   -0.7500    3.8971    0.0000 C   0  0  0  0  0  0  0  0  0  0  0  0
   -2.0490    4.6471    0.0000 F   0  0  0  0  0  0  0  0  0  0  0  0
    0.5490    3.1471    0.0000 F   0  0  0  0  0  0  0  0  0  0  0  0
    0.0000    5.1962    0.0000 C   0  0  0  0  0  0  0  0  0  0  0  0
    0.7500    6.4952    0.0000 F   0  0  0  0  0  0  0  0  0  0  0  0
    1.2990    4.4462    0.0000 F   0  0  0  0  0  0  0  0  0  0  0  0
   -1.2990    5.9462    0.0000 F   0  0  0  0  0  0  0  0  0  0  0  0
    0.7500    1.2990    0.0000 C   0  0  0  0  0  0  0  0  0  0  0  0
  1  2  1  0
  2  3  2  0
  3  4  1  0
  4  5  1  0
  4  6  2  0
  6  7  1  0
  7  8  1  0
  8  9  2  0
  8 10  1  0
 10 11  1  0
 10 12  1  0
 10 13  1  0
 13 14  1  0
 13 15  1  0
 13 16  1  0
  7 17  2  0
 17  2  1  0
M  END
$$$$

     RDKit          2D

 13 12  0  0  0  0  0  0  0  0999 V2000
    1.2990    2.2500    0.0000 N   0  0  0  0  0  0  0  0  0  0  0  0
    1.2990    0.7500    0.0000 C   0  0  0  0  0  0  0  0  0  0  0  0
    0.0000    0.0000    0.0000 C   0  0  0  0  0  0  0  0  0  0  0  0
   -1.2990    0.7500    0.0000 C   0  0  0  0  0  0  0  0  0  0  0  0
   -2.0490   -0.5490    0.0000 F   0  0  0  0  0  0  0  0  0  0  0  0
   -0.5490    2.0490    0.0000 F   0  0  0  0  0  0  0  0  0  0  0  0
   -2.5981    1.5000    0.0000 C   0  0  0  0  0  0  0  0  0  0  0  0
   -3.8971    2.2500    0.0000 F   0  0  0  0  0  0  0  0  0  0  0  0
   -1.8481    2.7990    0.0000 F   0  0  0  0  0  0  0  0  0  0  0  0
   -3.3481    0.2010    0.0000 F   0  0  0  0  0  0  0  0  0  0  0  0
    2.5981   -0.0000    0.0000 C   0  0  0  0  0  0  0  0  0  0  0  0
    2.5981   -1.5000    0.0000 O   0  0  0  0  0  0  0  0  0  0  0  0
    3.8971    0.7500    0.0000 O   0  0  0  0  0  0  0  0  0  0  0  0
  2  1  1  1
  2  3  1  0
  3  4  1  0
  4  5  1  0
  4  6  1  0
  4  7  1  0
  7  8  1  0
  7  9  1  0
  7 10  1  0
  2 11  1  0
 11 12  2  0
 11 13  1  0
M  END
$$$$

     RDKit          2D

 39 39  0  0  0  0  0  0  0  0999 V2000
    3.7500   -1.2990    0.0000 C   0  0  0  0  0  0  0  0  0  0  0  0
    3.0000    0.0000    0.0000 O   0  0  0  0  0  0  0  0  0  0  0  0
    1.5000    0.0000    0.0000 C   0  0  0  0  0  0  0  0  0  0  0  0
    0.7500   -1.2990    0.0000 C   0  0  0  0  0  0  0  0  0  0  0  0
   -0.7500   -1.2990    0.0000 C   0  0  0  0  0  0  0  0  0  0  0  0
   -1.5000    0.0000    0.0000 C   0  0  0  0  0  0  0  0  0  0  0  0
   -3.0000    0.0000    0.0000 N   0  0  0  0  0  0  0  0  0  0  0  0
   -3.7500    1.2990    0.0000 S   0  0  0  0  0  0  0  0  0  0  0  0
   -2.4510    2.0490    0.0000 O   0  0  0  0  0  0  0  0  0  0  0  0
   -5.0490    0.5490    0.0000 O   0  0  0  0  0  0  0  0  0  0  0  0
   -4.5000    2.5981    0.0000 C   0  0  0  0  0  0  0  0  0  0  0  0
   -3.7500    3.8971    0.0000 C   0  0  0  0  0  0  0  0  0  0  0  0
   -4.5000    5.1962    0.0000 C   0  0  0  0  0  0  0  0  0  0  0  0
   -6.0000    5.1962    0.0000 C   0  0  0  0  0  0  0  0  0  0  0  0
   -6.7500    6.4952    0.0000 N   0  0  0  0  0  0  0  0  0  0  0  0
   -6.7500    3.8971    0.0000 C   0  0  0  0  0  0  0  0  0  0  0  0
   -6.0000    2.5981    0.0000 C   0  0  0  0  0  0  0  0  0  0  0  0
   -0.7500    1.2990    0.0000 N   0  0  0  0  0  0  0  0  0  0  0  0
    0.7500    1.2990    0.0000 N   0  0  0  0  0  0  0  0  0  0  0  0
    2.5981   12.5442    0.0000 O   0  0  0  0  0  0  0  0  0  0  0  0
    2.5981   11.0442    0.0000 C   0  0  0  0  0  0  0  0  0  0  0  0
    3.3319   10.7328    0.0000 O   0  0  0  0  0  0  0  0  0  0  0  0
    1.2990   10.2942    0.0000 C   0  0  0  0  0  0  0  0  0  0  0  0
    0.5490   11.5933    0.0000 F   0  0  0  0  0  0  0  0  0  0  0  0
    2.0490    8.9952    0.0000 O   0  0  0  0  0  0  0  0  0  0  0  0
    3.5490    8.9952    0.0000 C   0  0  0  0  0  0  0  0  0  0  0  0
    3.5490    7.4952    0.0000 F   0  0  0  0  0  0  0  0  0  0  0  0
    3.6462    9.7864    0.0000 F   0  0  0  0  0  0  0  0  0  0  0  0
    5.0490    8.9952    0.0000 C   0  0  0  0  0  0  0  0  0  0  0  0
    5.0490   10.4952    0.0000 F   0  0  0  0  0  0  0  0  0  0  0  0
    5.0490    7.4952    0.0000 F   0  0  0  0  0  0  0  0  0  0  0  0
    6.5490    8.9952    0.0000 C   0  0  0  0  0  0  0  0  0  0  0  0
    8.0490    8.9952    0.0000 F   0  0  0  0  0  0  0  0  0  0  0  0
    6.5490    7.4952    0.0000 F   0  0  0  0  0  0  0  0  0  0  0  0
    6.5490   10.4952    0.0000 F   0  0  0  0  0  0  0  0  0  0  0  0
    0.0000    9.5442    0.0000 C   0  0  0  0  0  0  0  0  0  0  0  0
   -1.2990    8.7942    0.0000 F   0  0  0  0  0  0  0  0  0  0  0  0
   -0.7500   10.8433    0.0000 F   0  0  0  0  0  0  0  0  0  0  0  0
    0.7500    8.2452    0.0000 F   0  0  0  0  0  0  0  0  0  0  0  0
  1  2  1  0
  2  3  1  0
  3  4  2  0
  4  5  1  0
  5  6  2  0
  6  7  1  0
  7  8  1  0
  8  9  2  0
  8 10  2  0
  8 11  1  0
 11 12  2  0
 12 13  1  0
 13 14  2  0
 14 15  1  0
 14 16  1  0
 16 17  2  0
  6 18  1  0
 18 19  2  0
 20 21  2  0
 21 22  1  0
 21 23  1  0
 23 24  1  0
 23 25  1  0
 25 26  1  0
 26 27  1  0
 26 28  1  0
 26 29  1  0
 29 30  1  0
 29 31  1  0
 29 32  1  0
 32 33  1  0
 32 34  1  0
 32 35  1  0
 23 36  1  0
 36 37  1  0
 36 38  1  0
 36 39  1  0
 19  3  1  0
 17 11  1  0
M  CHG  2  15   1  22  -1
M  END
$$$$

     RDKit          2D

 33 33  0  0  0  0  0  0  0  0999 V2000
    5.2500   -3.8971    0.0000 O   0  0  0  0  0  0  0  0  0  0  0  0
    6.0000   -2.5981    0.0000 C   0  0  0  0  0  0  0  0  0  0  0  0
    5.2500   -1.2990    0.0000 N   0  0  0  0  0  0  0  0  0  0  0  0
    3.7500   -1.2990    0.0000 N   0  0  0  0  0  0  0  0  0  0  0  0
    3.0000    0.0000    0.0000 C   0  0  0  0  0  0  0  0  0  0  0  0
    1.5000    0.0000    0.0000 C   0  0  0  0  0  0  0  0  0  0  0  0
    0.7500   -1.2990    0.0000 C   0  0  0  0  0  0  0  0  0  0  0  0
   -0.7500   -1.2990    0.0000 C   0  0  0  0  0  0  0  0  0  0  0  0
   -1.5000    0.0000    0.0000 C   0  0  0  0  0  0  0  0  0  0  0  0
   -3.0000    0.0000    0.0000 N   0  0  0  0  0  0  0  0  0  0  0  0
   -3.7500   -1.2990    0.0000 O   0  0  0  0  0  0  0  0  0  0  0  0
   -3.7500    1.2990    0.0000 O   0  0  0  0  0  0  0  0  0  0  0  0
   -0.7500    1.2990    0.0000 C   0  0  0  0  0  0  0  0  0  0  0  0
    0.7500    1.2990    0.0000 C   0  0  0  0  0  0  0  0  0  0  0  0
    7.5000   -2.5981    0.0000 C   0  0  0  0  0  0  0  0  0  0  0  0
    7.5000   -4.0981    0.0000 F   0  0  0  0  0  0  0  0  0  0  0  0
    7.5000   -1.0981    0.0000 F   0  0  0  0  0  0  0  0  0  0  0  0
    9.0000   -2.5981    0.0000 C   0  0  0  0  0  0  0  0  0  0  0  0
    9.0000   -1.0981    0.0000 F   0  0  0  0  0  0  0  0  0  0  0  0
    9.0000   -4.0981    0.0000 F   0  0  0  0  0  0  0  0  0  0  0  0
   10.5000   -2.5981    0.0000 C   0  0  0  0  0  0  0  0  0  0  0  0
   10.5000   -4.0981    0.0000 F   0  0  0  0  0  0  0  0  0  0  0  0
   10.5000   -1.0981    0.0000 F   0  0  0  0  0  0  0  0  0  0  0  0
   12.0000   -2.5981    0.0000 C   0  0  0  0  0  0  0  0  0  0  0  0
   12.0000   -1.0981    0.0000 F   0  0  0  0  0  0  0  0  0  0  0  0
   12.0000   -4.0981    0.0000 F   0  0  0  0  0  0  0  0  0  0  0  0
   13.5000   -2.5981    0.0000 C   0  0  0  0  0  0  0  0  0  0  0  0
   13.5000   -4.0981    0.0000 F   0  0  0  0  0  0  0  0  0  0  0  0
   13.5000   -1.0981    0.0000 F   0  0  0  0  0  0  0  0  0  0  0  0
   15.0000   -2.5981    0.0000 C   0  0  0  0  0  0  0  0  0  0  0  0
   16.5000   -2.5981    0.0000 F   0  0  0  0  0  0  0  0  0  0  0  0
   15.0000   -1.0981    0.0000 F   0  0  0  0  0  0  0  0  0  0  0  0
   15.0000   -4.0981    0.0000 F   0  0  0  0  0  0  0  0  0  0  0  0
  1  2  2  0
  2  3  1  0
  3  4  1  0
  4  5  2  0
  5  6  1  0
  6  7  2  0
  7  8  1  0
  8  9  2  0
  9 10  1  0
 10 11  2  0
 10 12  1  0
  9 13  1  0
 13 14  2  0
  2 15  1  0
 15 16  1  0
 15 17  1  0
 15 18  1  0
 18 19  1  0
 18 20  1  0
 18 21  1  0
 21 22  1  0
 21 23  1  0
 21 24  1  0
 24 25  1  0
 24 26  1  0
 24 27  1  0
 27 28  1  0
 27 29  1  0
 27 30  1  0
 30 31  1  0
 30 32  1  0
 30 33  1  0
 14  6  1  0
M  CHG  2  10   1  12  -1
M  END
$$$$

     RDKit          2D

  8  7  0  0  0  0  0  0  0  0999 V2000
    2.5981    3.0000    0.0000 F   0  0  0  0  0  0  0  0  0  0  0  0
    2.5981    1.5000    0.0000 C   0  0  0  0  0  0  0  0  0  0  0  0
    3.8971    0.7500    0.0000 F   0  0  0  0  0  0  0  0  0  0  0  0
    1.2990    0.7500    0.0000 C   0  0  0  0  0  0  0  0  0  0  0  0
    0.5490    2.0490    0.0000 F   0  0  0  0  0  0  0  0  0  0  0  0
    2.0490   -0.5490    0.0000 F   0  0  0  0  0  0  0  0  0  0  0  0
    0.0000    0.0000    0.0000 C   0  0  0  0  0  0  0  0  0  0  0  0
   -1.2990    0.7500    0.0000 S   0  0  0  0  0  0  0  0  0  0  0  0
  1  2  1  0
  2  3  1  0
  2  4  1  0
  4  5  1  0
  4  6  1  0
  4  7  1  0
  7  8  1  0
M  END
$$$$

     RDKit          2D

 23 22  0  0  0  0  0  0  0  0999 V2000
   -1.5000    0.0000    0.0000 F   0  0  0  0  0  0  0  0  0  0  0  0
    0.0000    0.0000    0.0000 C   0  0  0  0  0  0  0  0  0  0  0  0
    0.0000    1.5000    0.0000 F   0  0  0  0  0  0  0  0  0  0  0  0
   -0.0000   -1.5000    0.0000 F   0  0  0  0  0  0  0  0  0  0  0  0
    1.5000    0.0000    0.0000 C   0  0  0  0  0  0  0  0  0  0  0  0
    1.3920    0.8791    0.0000 F   0  0  0  0  0  0  0  0  0  0  0  0
    1.5000   -1.5000    0.0000 F   0  0  0  0  0  0  0  0  0  0  0  0
    3.0000    0.0000    0.0000 C   0  0  0  0  0  0  0  0  0  0  0  0
    3.0000   -1.5000    0.0000 F   0  0  0  0  0  0  0  0  0  0  0  0
    4.5000    0.0000    0.0000 C   0  0  0  0  0  0  0  0  0  0  0  0
    4.5000   -1.5000    0.0000 F   0  0  0  0  0  0  0  0  0  0  0  0
    4.6080    0.8791    0.0000 F   0  0  0  0  0  0  0  0  0  0  0  0
    6.0000   -0.0000    0.0000 C   0  0  0  0  0  0  0  0  0  0  0  0
    7.5000   -0.0000    0.0000 F   0  0  0  0  0  0  0  0  0  0  0  0
    6.0000   -1.5000    0.0000 F   0  0  0  0  0  0  0  0  0  0  0  0
    6.0000    1.5000    0.0000 F   0  0  0  0  0  0  0  0  0  0  0  0
    3.0000    1.5000    0.0000 C   0  0  0  0  0  0  0  0  0  0  0  0
    3.8791    1.6080    0.0000 F   0  0  0  0  0  0  0  0  0  0  0  0
    2.1209    1.6080    0.0000 F   0  0  0  0  0  0  0  0  0  0  0  0
    3.0000    3.0000    0.0000 C   0  0  0  0  0  0  0  0  0  0  0  0
    3.0000    4.5000    0.0000 F   0  0  0  0  0  0  0  0  0  0  0  0
    4.5000    3.0000    0.0000 F   0  0  0  0  0  0  0  0  0  0  0  0
    1.5000    3.0000    0.0000 F   0  0  0  0  0  0  0  0  0  0  0  0
  1  2  1  0
  2  3  1  0
  2  4  1  0
  2  5  1  0
  5  6  1  0
  5  7  1  0
  5  8  1  0
  8  9  1  0
  8 10  1  0
 10 11  1  0
 10 12  1  0
 10 13  1  0
 13 14  1  0
 13 15  1  0
 13 16  1  0
  8 17  1  0
 17 18  1  0
 17 19  1  0
 17 20  1  0
 20 21  1  0
 20 22  1  0
 20 23  1  0
M  END
$$$$

     RDKit          2D

 13 13  0  0  0  0  0  0  0  0999 V2000
    3.0000   -2.5981    0.0000 F   0  0  0  0  0  0  0  0  0  0  0  0
    3.7500   -1.2990    0.0000 C   0  0  0  0  0  0  0  0  0  0  0  0
    3.0000    0.0000    0.0000 S   0  0  0  0  0  0  0  0  0  0  0  0
    1.5000    0.0000    0.0000 C   0  0  0  0  0  0  0  0  0  0  0  0
    0.7500   -1.2990    0.0000 C   0  0  0  0  0  0  0  0  0  0  0  0
   -0.7500   -1.2990    0.0000 C   0  0  0  0  0  0  0  0  0  0  0  0
   -1.5000    0.0000    0.0000 C   0  0  0  0  0  0  0  0  0  0  0  0
   -0.7500    1.2990    0.0000 C   0  0  0  0  0  0  0  0  0  0  0  0
    0.7500    1.2990    0.0000 C   0  0  0  0  0  0  0  0  0  0  0  0
    5.2500   -1.2990    0.0000 C   0  0  0  0  0  0  0  0  0  0  0  0
    6.7500   -1.2990    0.0000 F   0  0  0  0  0  0  0  0  0  0  0  0
    5.2500   -2.7990    0.0000 F   0  0  0  0  0  0  0  0  0  0  0  0
    5.2500    0.2010    0.0000 F   0  0  0  0  0  0  0  0  0  0  0  0
  1  2  1  0
  2  3  1  0
  3  4  1  0
  4  5  2  0
  5  6  1  0
  6  7  2  0
  7  8  1  0
  8  9  2  0
  2 10  1  0
 10 11  1  0
 10 12  1  0
 10 13  1  0
  9  4  1  0
M  END
$$$$

     RDKit          2D

 14 13  0  0  0  0  0  0  0  0999 V2000
   -0.0000   -3.0000    0.0000 O   0  0  0  0  0  0  0  0  0  0  0  0
   -0.0000   -1.5000    0.0000 S   0  0  0  0  0  0  0  0  0  0  0  0
   -1.5000   -1.5000    0.0000 O   0  0  0  0  0  0  0  0  0  0  0  0
    0.7912   -1.5972    0.0000 Cl  0  0  0  0  0  0  0  0  0  0  0  0
    0.0000    0.0000    0.0000 C   0  0  0  0  0  0  0  0  0  0  0  0
   -1.5000    0.0000    0.0000 F   0  0  0  0  0  0  0  0  0  0  0  0
    0.0000    1.5000    0.0000 F   0  0  0  0  0  0  0  0  0  0  0  0
    1.5000    0.0000    0.0000 C   0  0  0  0  0  0  0  0  0  0  0  0
    1.5000    1.5000    0.0000 F   0  0  0  0  0  0  0  0  0  0  0  0
    1.6080   -0.8791    0.0000 F   0  0  0  0  0  0  0  0  0  0  0  0
    3.0000    0.0000    0.0000 C   0  0  0  0  0  0  0  0  0  0  0  0
    4.5000    0.0000    0.0000 F   0  0  0  0  0  0  0  0  0  0  0  0
    3.0000    1.5000    0.0000 F   0  0  0  0  0  0  0  0  0  0  0  0
    3.0000   -1.5000    0.0000 F   0  0  0  0  0  0  0  0  0  0  0  0
  1  2  2  0
  2  3  2  0
  2  4  1  0
  2  5  1  0
  5  6  1  0
  5  7  1  0
  5  8  1  0
  8  9  1  0
  8 10  1  0
  8 11  1  0
 11 12  1  0
 11 13  1  0
 11 14  1  0
M  END
$$$$

     RDKit          2D

 16 16  0  0  0  0  0  0  0  0999 V2000
    3.7500   -1.2990    0.0000 C   0  0  0  0  0  0  0  0  0  0  0  0
    3.0000    0.0000    0.0000 C   0  0  0  0  0  0  0  0  0  0  0  0
    3.7500    1.2990    0.0000 O   0  0  0  0  0  0  0  0  0  0  0  0
    1.5000    0.0000    0.0000 C   0  0  0  0  0  0  0  0  0  0  0  0
    0.7500   -1.2990    0.0000 C   0  0  0  0  0  0  0  0  0  0  0  0
   -0.7500   -1.2990    0.0000 C   0  0  0  0  0  0  0  0  0  0  0  0
   -1.5000    0.0000    0.0000 C   0  0  0  0  0  0  0  0  0  0  0  0
   -0.7500    1.2990    0.0000 C   0  0  0  0  0  0  0  0  0  0  0  0
    0.7500    1.2990    0.0000 C   0  0  0  0  0  0  0  0  0  0  0  0
    1.5000    2.5981    0.0000 O   0  0  0  0  0  0  0  0  0  0  0  0
    0.7500    3.8971    0.0000 C   0  0  0  0  0  0  0  0  0  0  0  0
   -0.5490    3.1471    0.0000 F   0  0  0  0  0  0  0  0  0  0  0  0
    2.0490    4.6471    0.0000 F   0  0  0  0  0  0  0  0  0  0  0  0
    0.0000    5.1962    0.0000 C   0  0  0  0  0  0  0  0  0  0  0  0
   -1.5000    5.1962    0.0000 F   0  0  0  0  0  0  0  0  0  0  0  0
    0.7500    6.4952    0.0000 F   0  0  0  0  0  0  0  0  0  0  0  0
  1  2  1  0
  2  3  2  0
  2  4  1  0
  4  5  2  0
  5  6  1  0
  6  7  2  0
  7  8  1  0
  8  9  2  0
  9 10  1  0
 10 11  1  0
 11 12  1  0
 11 13  1  0
 11 14  1  0
 14 15  1  0
 14 16  1  0
  9  4  1  0
M  END
$$$$

     RDKit          2D

 14 14  0  0  0  0  0  0  0  0999 V2000
    3.0000    0.0000    0.0000 N   0  0  0  0  0  0  0  0  0  0  0  0
    1.5000    0.0000    0.0000 C   0  0  0  0  0  0  0  0  0  0  0  0
    0.7500   -1.2990    0.0000 N   0  0  0  0  0  0  0  0  0  0  0  0
   -0.7500   -1.2990    0.0000 C   0  0  0  0  0  0  0  0  0  0  0  0
   -1.5000    0.0000    0.0000 N   0  0  0  0  0  0  0  0  0  0  0  0
   -0.7500    1.2990    0.0000 C   0  0  0  0  0  0  0  0  0  0  0  0
   -1.5000    2.5981    0.0000 C   0  0  0  0  0  0  0  0  0  0  0  0
   -0.2010    3.3481    0.0000 F   0  0  0  0  0  0  0  0  0  0  0  0
   -2.7990    1.8481    0.0000 F   0  0  0  0  0  0  0  0  0  0  0  0
   -2.2500    3.8971    0.0000 C   0  0  0  0  0  0  0  0  0  0  0  0
   -3.0000    5.1962    0.0000 F   0  0  0  0  0  0  0  0  0  0  0  0
   -3.5490    3.1471    0.0000 F   0  0  0  0  0  0  0  0  0  0  0  0
   -0.9510    4.6471    0.0000 F   0  0  0  0  0  0  0  0  0  0  0  0
    0.7500    1.2990    0.0000 N   0  0  0  0  0  0  0  0  0  0  0  0
  1  2  1  0
  2  3  2  0
  3  4  1  0
  4  5  2  0
  5  6  1  0
  6  7  1  0
  7  8  1  0
  7  9  1  0
  7 10  1  0
 10 11  1  0
 10 12  1  0
 10 13  1  0
  6 14  2  0
 14  2  1  0
M  END
$$$$

     RDKit          2D

 38 40  0  0  0  0  0  0  0  0999 V2000
   12.0000    0.0000    0.0000 F   0  0  0  0  0  0  0  0  0  0  0  0
   10.5000    0.0000    0.0000 C   0  0  0  0  0  0  0  0  0  0  0  0
   10.5000    1.5000    0.0000 F   0  0  0  0  0  0  0  0  0  0  0  0
   10.5000   -1.5000    0.0000 F   0  0  0  0  0  0  0  0  0  0  0  0
    9.0000    0.0000    0.0000 C   0  0  0  0  0  0  0  0  0  0  0  0
    9.0000   -1.5000    0.0000 F   0  0  0  0  0  0  0  0  0  0  0  0
    9.0000    1.5000    0.0000 F   0  0  0  0  0  0  0  0  0  0  0  0
    7.5000    0.0000    0.0000 C   0  0  0  0  0  0  0  0  0  0  0  0
    7.5000    1.5000    0.0000 F   0  0  0  0  0  0  0  0  0  0  0  0
    7.5000   -1.5000    0.0000 F   0  0  0  0  0  0  0  0  0  0  0  0
    6.0000    0.0000    0.0000 C   0  0  0  0  0  0  0  0  0  0  0  0
    6.0000   -1.5000    0.0000 F   0  0  0  0  0  0  0  0  0  0  0  0
    6.0000    1.5000    0.0000 F   0  0  0  0  0  0  0  0  0  0  0  0
    4.5000    0.0000    0.0000 C   0  0  0  0  0  0  0  0  0  0  0  0
    4.5000    1.5000    0.0000 F   0  0  0  0  0  0  0  0  0  0  0  0
    4.5000   -1.5000    0.0000 F   0  0  0  0  0  0  0  0  0  0  0  0
    3.0000    0.0000    0.0000 C   0  0  0  0  0  0  0  0  0  0  0  0
    3.0000   -1.5000    0.0000 F   0  0  0  0  0  0  0  0  0  0  0  0
    3.0000    1.5000    0.0000 F   0  0  0  0  0  0  0  0  0  0  0  0
    1.5000    0.0000    0.0000 C   0  0  0  0  0  0  0  0  0  0  0  0
    0.7500   -1.2990    0.0000 C   0  0  0  0  0  0  0  0  0  0  0  0
   -0.7500   -1.2990    0.0000 C   0  0  0  0  0  0  0  0  0  0  0  0
   -1.5000    0.0000    0.0000 C   0  0  0  0  0  0  0  0  0  0  0  0
   -3.0000    0.0000    0.0000 P   0  0  0  0  0  0  0  0  0  0  0  0
   -3.7500    1.2990    0.0000 C   0  0  0  0  0  0  0  0  0  0  0  0
   -3.0000    2.5981    0.0000 C   0  0  0  0  0  0  0  0  0  0  0  0
   -3.7500    3.8971    0.0000 C   0  0  0  0  0  0  0  0  0  0  0  0
   -5.2500    3.8971    0.0000 C   0  0  0  0  0  0  0  0  0  0  0  0
   -6.0000    2.5981    0.0000 C   0  0  0  0  0  0  0  0  0  0  0  0
   -5.2500    1.2990    0.0000 C   0  0  0  0  0  0  0  0  0  0  0  0
   -3.7500   -1.2990    0.0000 C   0  0  0  0  0  0  0  0  0  0  0  0
   -5.2500   -1.2990    0.0000 C   0  0  0  0  0  0  0  0  0  0  0  0
   -6.0000   -2.5981    0.0000 C   0  0  0  0  0  0  0  0  0  0  0  0
   -5.2500   -3.8971    0.0000 C   0  0  0  0  0  0  0  0  0  0  0  0
   -3.7500   -3.8971    0.0000 C   0  0  0  0  0  0  0  0  0  0  0  0
   -3.0000   -2.5981    0.0000 C   0  0  0  0  0  0  0  0  0  0  0  0
   -0.7500    1.2990    0.0000 C   0  0  0  0  0  0  0  0  0  0  0  0
    0.7500    1.2990    0.0000 C   0  0  0  0  0  0  0  0  0  0  0  0
  1  2  1  0
  2  3  1  0
  2  4  1  0
  2  5  1  0
  5  6  1  0
  5  7  1  0
  5  8  1  0
  8  9  1  0
  8 10  1  0
  8 11  1  0
 11 12  1  0
 11 13  1  0
 11 14  1  0
 14 15  1  0
 14 16  1  0
 14 17  1  0
 17 18  1  0
 17 19  1  0
 17 20  1  0
 20 21  2  0
 21 22  1  0
 22 23  2  0
 23 24  1  0
 24 25  1  0
 25 26  2  0
 26 27  1  0
 27 28  2  0
 28 29  1  0
 29 30  2  0
 24 31  1  0
 31 32  2  0
 32 33  1  0
 33 34  2  0
 34 35  1  0
 35 36  2  0
 23 37  1  0
 37 38  2  0
 38 20  1  0
 30 25  1  0
 36 31  1  0
M  END
$$$$

     RDKit          2D

 13 13  0  0  0  0  0  0  0  0999 V2000
    6.0000    0.0000    0.0000 F   0  0  0  0  0  0  0  0  0  0  0  0
    4.5000    0.0000    0.0000 C   0  0  0  0  0  0  0  0  0  0  0  0
    4.5000    1.5000    0.0000 F   0  0  0  0  0  0  0  0  0  0  0  0
    4.5000   -1.5000    0.0000 Cl  0  0  0  0  0  0  0  0  0  0  0  0
    3.0000    0.0000    0.0000 C   0  0  0  0  0  0  0  0  0  0  0  0
    3.0000   -1.5000    0.0000 F   0  0  0  0  0  0  0  0  0  0  0  0
    3.0000    1.5000    0.0000 F   0  0  0  0  0  0  0  0  0  0  0  0
    1.5000    0.0000    0.0000 C   0  0  0  0  0  0  0  0  0  0  0  0
    0.7500   -1.2990    0.0000 C   0  0  0  0  0  0  0  0  0  0  0  0
   -0.7500   -1.2990    0.0000 C   0  0  0  0  0  0  0  0  0  0  0  0
   -1.5000    0.0000    0.0000 C   0  0  0  0  0  0  0  0  0  0  0  0
   -0.7500    1.2990    0.0000 C   0  0  0  0  0  0  0  0  0  0  0  0
    0.7500    1.2990    0.0000 C   0  0  0  0  0  0  0  0  0  0  0  0
  1  2  1  0
  2  3  1  0
  2  4  1  0
  2  5  1  0
  5  6  1  0
  5  7  1  0
  5  8  1  0
  8  9  2  0
  9 10  1  0
 10 11  2  0
 11 12  1  0
 12 13  2  0
 13  8  1  0
M  END
$$$$

     RDKit          2D

 30 30  0  0  0  0  0  0  0  0999 V2000
    5.2500   -3.8971    0.0000 F   0  0  0  0  0  0  0  0  0  0  0  0
    4.5000   -2.5981    0.0000 C   0  0  0  0  0  0  0  0  0  0  0  0
    3.2010   -3.3481    0.0000 F   0  0  0  0  0  0  0  0  0  0  0  0
    5.7990   -1.8481    0.0000 F   0  0  0  0  0  0  0  0  0  0  0  0
    3.7500   -1.2990    0.0000 C   0  0  0  0  0  0  0  0  0  0  0  0
    2.4510   -2.0490    0.0000 F   0  0  0  0  0  0  0  0  0  0  0  0
    5.0490   -0.5490    0.0000 F   0  0  0  0  0  0  0  0  0  0  0  0
    3.0000    0.0000    0.0000 O   0  0  0  0  0  0  0  0  0  0  0  0
    1.5000    0.0000    0.0000 C   0  0  0  0  0  0  0  0  0  0  0  0
    0.7500   -1.2990    0.0000 C   0  0  0  0  0  0  0  0  0  0  0  0
   -0.7500   -1.2990    0.0000 C   0  0  0  0  0  0  0  0  0  0  0  0
   -1.5000   -2.5981    0.0000 O   0  0  0  0  0  0  0  0  0  0  0  0
   -3.0000   -2.5981    0.0000 C   0  0  0  0  0  0  0  0  0  0  0  0
   -3.0000   -1.0981    0.0000 F   0  0  0  0  0  0  0  0  0  0  0  0
   -3.0000   -4.0981    0.0000 F   0  0  0  0  0  0  0  0  0  0  0  0
   -4.5000   -2.5981    0.0000 C   0  0  0  0  0  0  0  0  0  0  0  0
   -6.0000   -2.5981    0.0000 F   0  0  0  0  0  0  0  0  0  0  0  0
   -4.5000   -1.0981    0.0000 F   0  0  0  0  0  0  0  0  0  0  0  0
   -4.5000   -4.0981    0.0000 F   0  0  0  0  0  0  0  0  0  0  0  0
   -1.5000    0.0000    0.0000 C   0  0  0  0  0  0  0  0  0  0  0  0
   -0.7500    1.2990    0.0000 C   0  0  0  0  0  0  0  0  0  0  0  0
   -1.5000    2.5981    0.0000 O   0  0  0  0  0  0  0  0  0  0  0  0
   -0.7500    3.8971    0.0000 C   0  0  0  0  0  0  0  0  0  0  0  0
    0.5490    3.1471    0.0000 F   0  0  0  0  0  0  0  0  0  0  0  0
   -2.0490    4.6471    0.0000 F   0  0  0  0  0  0  0  0  0  0  0  0
    0.0000    5.1962    0.0000 C   0  0  0  0  0  0  0  0  0  0  0  0
    0.7500    6.4952    0.0000 F   0  0  0  0  0  0  0  0  0  0  0  0
    1.2990    4.4462    0.0000 F   0  0  0  0  0  0  0  0  0  0  0  0
   -1.2990    5.9462    0.0000 F   0  0  0  0  0  0  0  0  0  0  0  0
    0.7500    1.2990    0.0000 C   0  0  0  0  0  0  0  0  0  0  0  0
  1  2  1  0
  2  3  1  0
  2  4  1  0
  2  5  1  0
  5  6  1  0
  5  7  1  0
  5  8  1  0
  8  9  1  0
  9 10  2  0
 10 11  1  0
 11 12  1  0
 12 13  1  0
 13 14  1  0
 13 15  1  0
 13 16  1  0
 16 17  1  0
 16 18  1  0
 16 19  1  0
 11 20  2  0
 20 21  1  0
 21 22  1  0
 22 23  1  0
 23 24  1  0
 23 25  1  0
 23 26  1  0
 26 27  1  0
 26 28  1  0
 26 29  1  0
 21 30  2  0
 30  9  1  0
M  END
$$$$

     RDKit          2D

 12 11  0  0  0  0  0  0  0  0999 V2000
    0.0000    0.0000    0.0000 C   0  0  0  0  0  0  0  0  0  0  0  0
    1.2990    0.7500    0.0000 C   0  0  0  0  0  0  0  0  0  0  0  0
    2.5981   -0.0000    0.0000 O   0  0  0  0  0  0  0  0  0  0  0  0
    1.2990    2.2500    0.0000 S   0  0  0  0  0  0  0  0  0  0  0  0
    2.5981    3.0000    0.0000 C   0  0  0  0  0  0  0  0  0  0  0  0
    2.5981    4.5000    0.0000 C   0  0  0  0  0  0  0  0  0  0  0  0
    1.0981    4.5000    0.0000 F   0  0  0  0  0  0  0  0  0  0  0  0
    4.0981    4.5000    0.0000 F   0  0  0  0  0  0  0  0  0  0  0  0
    2.5981    6.0000    0.0000 C   0  0  0  0  0  0  0  0  0  0  0  0
    2.5981    7.5000    0.0000 F   0  0  0  0  0  0  0  0  0  0  0  0
    1.0981    6.0000    0.0000 F   0  0  0  0  0  0  0  0  0  0  0  0
    4.0981    6.0000    0.0000 F   0  0  0  0  0  0  0  0  0  0  0  0
  1  2  1  0
  2  3  2  0
  2  4  1  0
  4  5  1  0
  5  6  1  0
  6  7  1  0
  6  8  1  0
  6  9  1  0
  9 10  1  0
  9 11  1  0
  9 12  1  0
M  END
$$$$

     RDKit          2D

 12 12  0  0  0  0  0  0  0  0999 V2000
    5.2500    1.2990    0.0000 F   0  0  0  0  0  0  0  0  0  0  0  0
    4.5000    0.0000    0.0000 C   0  0  0  0  0  0  0  0  0  0  0  0
    5.2500   -1.2990    0.0000 F   0  0  0  0  0  0  0  0  0  0  0  0
    3.0000    0.0000    0.0000 C   0  0  0  0  0  0  0  0  0  0  0  0
    3.0000   -1.5000    0.0000 F   0  0  0  0  0  0  0  0  0  0  0  0
    3.0000    1.5000    0.0000 F   0  0  0  0  0  0  0  0  0  0  0  0
    1.5000    0.0000    0.0000 C   0  0  0  0  0  0  0  0  0  0  0  0
    0.7500   -1.2990    0.0000 N   0  0  0  0  0  0  0  0  0  0  0  0
   -0.7500   -1.2990    0.0000 C   0  0  0  0  0  0  0  0  0  0  0  0
   -1.5000    0.0000    0.0000 C   0  0  0  0  0  0  0  0  0  0  0  0
   -0.7500    1.2990    0.0000 C   0  0  0  0  0  0  0  0  0  0  0  0
    0.7500    1.2990    0.0000 N   0  0  0  0  0  0  0  0  0  0  0  0
  1  2  1  0
  2  3  1  0
  2  4  1  0
  4  5  1  0
  4  6  1  0
  4  7  1  0
  7  8  2  0
  8  9  1  0
  9 10  1  0
 10 11  1  0
 11 12  1  0
 12  7  1  0
M  END
$$$$

     RDKit          2D

 16 16  0  0  0  0  0  0  0  0999 V2000
    4.5000    0.0000    0.0000 C   0  0  0  0  0  0  0  0  0  0  0  0
    3.0000    0.0000    0.0000 C   0  0  0  0  0  0  0  0  0  0  0  0
    3.0000   -1.5000    0.0000 O   0  0  0  0  0  0  0  0  0  0  0  0
    1.5000    0.0000    0.0000 C   0  0  0  0  0  0  0  0  0  0  0  0
    0.7500    1.2990    0.0000 C   0  0  0  0  0  0  0  0  0  0  0  0
   -0.7500    1.2990    0.0000 C   0  0  0  0  0  0  0  0  0  0  0  0
   -1.5000    0.0000    0.0000 C   0  0  0  0  0  0  0  0  0  0  0  0
   -0.7500   -1.2990    0.0000 C   0  0  0  0  0  0  0  0  0  0  0  0
    0.7500   -1.2990    0.0000 C   0  0  0  0  0  0  0  0  0  0  0  0
    3.0000    1.5000    0.0000 C   0  0  0  0  0  0  0  0  0  0  0  0
    1.5446    1.8630    0.0000 F   0  0  0  0  0  0  0  0  0  0  0  0
    4.5000    1.5000    0.0000 F   0  0  0  0  0  0  0  0  0  0  0  0
    3.0000    3.0000    0.0000 C   0  0  0  0  0  0  0  0  0  0  0  0
    3.0000    4.5000    0.0000 F   0  0  0  0  0  0  0  0  0  0  0  0
    1.5000    3.0000    0.0000 F   0  0  0  0  0  0  0  0  0  0  0  0
    4.5000    3.0000    0.0000 F   0  0  0  0  0  0  0  0  0  0  0  0
  1  2  1  0
  2  3  1  0
  2  4  1  0
  4  5  2  0
  5  6  1  0
  6  7  2  0
  7  8  1  0
  8  9  2  0
  2 10  1  0
 10 11  1  0
 10 12  1  0
 10 13  1  0
 13 14  1  0
 13 15  1  0
 13 16  1  0
  9  4  1  0
M  END
$$$$

     RDKit          2D

 25 24  0  0  0  0  0  0  0  0999 V2000
   -2.2500    1.2990    0.0000 O   0  0  0  0  0  0  0  0  0  0  0  0
   -0.7500    1.2990    0.0000 C   0  0  0  0  0  0  0  0  0  0  0  0
    0.0000    0.0000    0.0000 C   0  0  0  0  0  0  0  0  0  0  0  0
   -0.7500   -1.2990    0.0000 I   0  0  0  0  0  0  0  0  0  0  0  0
    1.5000    0.0000    0.0000 C   0  0  0  0  0  0  0  0  0  0  0  0
    2.2500   -1.2990    0.0000 F   0  0  0  0  0  0  0  0  0  0  0  0
    2.2500    1.2990    0.0000 C   0  0  0  0  0  0  0  0  0  0  0  0
    3.5490    0.5490    0.0000 F   0  0  0  0  0  0  0  0  0  0  0  0
    0.9510    2.0490    0.0000 F   0  0  0  0  0  0  0  0  0  0  0  0
    3.0000    2.5981    0.0000 C   0  0  0  0  0  0  0  0  0  0  0  0
    1.7010    3.3481    0.0000 F   0  0  0  0  0  0  0  0  0  0  0  0
    4.2990    1.8481    0.0000 F   0  0  0  0  0  0  0  0  0  0  0  0
    3.7500    3.8971    0.0000 C   0  0  0  0  0  0  0  0  0  0  0  0
    5.0490    3.1471    0.0000 F   0  0  0  0  0  0  0  0  0  0  0  0
    2.4510    4.6471    0.0000 F   0  0  0  0  0  0  0  0  0  0  0  0
    4.5000    5.1962    0.0000 C   0  0  0  0  0  0  0  0  0  0  0  0
    3.2010    5.9462    0.0000 F   0  0  0  0  0  0  0  0  0  0  0  0
    5.7990    4.4462    0.0000 F   0  0  0  0  0  0  0  0  0  0  0  0
    5.2500    6.4952    0.0000 C   0  0  0  0  0  0  0  0  0  0  0  0
    6.5490    5.7452    0.0000 F   0  0  0  0  0  0  0  0  0  0  0  0
    3.9510    7.2452    0.0000 F   0  0  0  0  0  0  0  0  0  0  0  0
    6.0000    7.7942    0.0000 C   0  0  0  0  0  0  0  0  0  0  0  0
    6.7500    9.0933    0.0000 F   0  0  0  0  0  0  0  0  0  0  0  0
    4.7010    8.5442    0.0000 F   0  0  0  0  0  0  0  0  0  0  0  0
    7.2990    7.0442    0.0000 F   0  0  0  0  0  0  0  0  0  0  0  0
  1  2  1  0
  2  3  1  0
  3  4  1  0
  3  5  2  0
  5  6  1  0
  5  7  1  0
  7  8  1  0
  7  9  1  0
  7 10  1  0
 10 11  1  0
 10 12  1  0
 10 13  1  0
 13 14  1  0
 13 15  1  0
 13 16  1  0
 16 17  1  0
 16 18  1  0
 16 19  1  0
 19 20  1  0
 19 21  1  0
 19 22  1  0
 22 23  1  0
 22 24  1  0
 22 25  1  0
M  END
$$$$

     RDKit          2D

 14 13  0  0  0  0  0  0  0  0999 V2000
   -1.2990    0.7500    0.0000 O   0  0  0  0  0  0  0  0  0  0  0  0
    0.0000    0.0000    0.0000 C   0  0  0  0  0  0  0  0  0  0  0  0
    1.2990    0.7500    0.0000 C   0  0  0  0  0  0  0  0  0  0  0  0
    2.5981   -0.0000    0.0000 C   0  0  0  0  0  0  0  0  0  0  0  0
    1.8481   -1.2990    0.0000 F   0  0  0  0  0  0  0  0  0  0  0  0
    3.3481    1.2990    0.0000 O   0  0  0  0  0  0  0  0  0  0  0  0
    2.5981    2.5981    0.0000 C   0  0  0  0  0  0  0  0  0  0  0  0
    1.8481    3.8971    0.0000 F   0  0  0  0  0  0  0  0  0  0  0  0
    3.8971    3.3481    0.0000 F   0  0  0  0  0  0  0  0  0  0  0  0
    1.2990    1.8481    0.0000 F   0  0  0  0  0  0  0  0  0  0  0  0
    3.8971   -0.7500    0.0000 C   0  0  0  0  0  0  0  0  0  0  0  0
    5.1962   -1.5000    0.0000 F   0  0  0  0  0  0  0  0  0  0  0  0
    3.1471   -2.0490    0.0000 F   0  0  0  0  0  0  0  0  0  0  0  0
    4.6471    0.5490    0.0000 F   0  0  0  0  0  0  0  0  0  0  0  0
  1  2  1  0
  2  3  1  0
  3  4  1  0
  4  5  1  0
  4  6  1  0
  6  7  1  0
  7  8  1  0
  7  9  1  0
  7 10  1  0
  4 11  1  0
 11 12  1  0
 11 13  1  0
 11 14  1  0
M  END
$$$$

     RDKit          2D

 11 11  0  0  0  0  0  0  0  0999 V2000
    3.7981    1.9284    0.0000 F   0  0  0  0  0  0  0  0  0  0  0  0
    2.6491    0.9642    0.0000 C   0  0  0  0  0  0  0  0  0  0  0  0
    3.6132   -0.1849    0.0000 F   0  0  0  0  0  0  0  0  0  0  0  0
    1.6849    2.1132    0.0000 F   0  0  0  0  0  0  0  0  0  0  0  0
    1.5000    0.0000    0.0000 C   0  0  0  0  0  0  0  0  0  0  0  0
    2.6491   -0.9642    0.0000 F   0  0  0  0  0  0  0  0  0  0  0  0
    0.7500   -1.2990    0.0000 C   0  0  0  0  0  0  0  0  0  0  0  0
   -0.7500   -1.2990    0.0000 C   0  0  0  0  0  0  0  0  0  0  0  0
   -1.5000    0.0000    0.0000 N   0  0  0  0  0  0  0  0  0  0  0  0
   -0.7500    1.2990    0.0000 C   0  0  0  0  0  0  0  0  0  0  0  0
    0.7500    1.2990    0.0000 C   0  0  0  0  0  0  0  0  0  0  0  0
  1  2  1  0
  2  3  1  0
  2  4  1  0
  2  5  1  0
  5  6  1  0
  5  7  1  0
  7  8  1  0
  8  9  1  0
  9 10  1  0
 10 11  1  0
 11  5  1  0
M  END
$$$$

     RDKit          2D

 14 14  0  0  0  0  0  0  0  0999 V2000
    4.5000    0.0000    0.0000 C   0  0  0  0  0  0  0  0  0  0  0  0
    3.0000    0.0000    0.0000 C   0  0  0  0  0  0  0  0  0  0  0  0
    3.0000    1.5000    0.0000 F   0  0  0  0  0  0  0  0  0  0  0  0
    1.5000    0.0000    0.0000 C   0  0  0  0  0  0  0  0  0  0  0  0
    0.7500   -1.2990    0.0000 C   0  0  0  0  0  0  0  0  0  0  0  0
   -0.7500   -1.2990    0.0000 C   0  0  0  0  0  0  0  0  0  0  0  0
   -1.5000    0.0000    0.0000 C   0  0  0  0  0  0  0  0  0  0  0  0
   -3.0000    0.0000    0.0000 O   0  0  0  0  0  0  0  0  0  0  0  0
   -0.7500    1.2990    0.0000 C   0  0  0  0  0  0  0  0  0  0  0  0
    0.7500    1.2990    0.0000 C   0  0  0  0  0  0  0  0  0  0  0  0
    3.0000   -1.5000    0.0000 C   0  0  0  0  0  0  0  0  0  0  0  0
    3.0000   -3.0000    0.0000 F   0  0  0  0  0  0  0  0  0  0  0  0
    1.5446   -1.8630    0.0000 F   0  0  0  0  0  0  0  0  0  0  0  0
    4.5000   -1.5000    0.0000 F   0  0  0  0  0  0  0  0  0  0  0  0
  1  2  1  0
  2  3  1  0
  2  4  1  0
  4  5  2  0
  5  6  1  0
  6  7  2  0
  7  8  1  0
  7  9  1  0
  9 10  2  0
  2 11  1  0
 11 12  1  0
 11 13  1  0
 11 14  1  0
 10  4  1  0
M  END
$$$$

     RDKit          2D

 35 35  0  0  0  0  0  0  0  0999 V2000
    3.0000    0.0000    0.0000 O   0  0  0  0  0  0  0  0  0  0  0  0
    1.5000    0.0000    0.0000 C   0  0  0  0  0  0  0  0  0  0  0  0
    0.7500   -1.2990    0.0000 C   0  0  0  0  0  0  0  0  0  0  0  0
   -0.7500   -1.2990    0.0000 C   0  0  0  0  0  0  0  0  0  0  0  0
   -1.5000    0.0000    0.0000 C   0  0  0  0  0  0  0  0  0  0  0  0
   -3.0000    0.0000    0.0000 O   0  0  0  0  0  0  0  0  0  0  0  0
   -3.7500    1.2990    0.0000 C   0  0  0  0  0  0  0  0  0  0  0  0
   -5.2500    1.2990    0.0000 C   0  0  0  0  0  0  0  0  0  0  0  0
   -6.0000    2.5981    0.0000 C   0  0  0  0  0  0  0  0  0  0  0  0
   -7.2990    1.8481    0.0000 F   0  0  0  0  0  0  0  0  0  0  0  0
   -4.7010    3.3481    0.0000 F   0  0  0  0  0  0  0  0  0  0  0  0
   -6.7500    3.8971    0.0000 C   0  0  0  0  0  0  0  0  0  0  0  0
   -5.4510    4.6471    0.0000 F   0  0  0  0  0  0  0  0  0  0  0  0
   -8.0490    3.1471    0.0000 F   0  0  0  0  0  0  0  0  0  0  0  0
   -7.5000    5.1962    0.0000 C   0  0  0  0  0  0  0  0  0  0  0  0
   -8.7990    4.4462    0.0000 F   0  0  0  0  0  0  0  0  0  0  0  0
   -6.2010    5.9462    0.0000 F   0  0  0  0  0  0  0  0  0  0  0  0
   -8.2500    6.4952    0.0000 C   0  0  0  0  0  0  0  0  0  0  0  0
   -6.9510    7.2452    0.0000 F   0  0  0  0  0  0  0  0  0  0  0  0
   -9.5490    5.7452    0.0000 F   0  0  0  0  0  0  0  0  0  0  0  0
   -9.0000    7.7942    0.0000 C   0  0  0  0  0  0  0  0  0  0  0  0
  -10.2990    7.0442    0.0000 F   0  0  0  0  0  0  0  0  0  0  0  0
   -7.7010    8.5442    0.0000 F   0  0  0  0  0  0  0  0  0  0  0  0
   -9.7500    9.0933    0.0000 C   0  0  0  0  0  0  0  0  0  0  0  0
   -8.4510    9.8433    0.0000 F   0  0  0  0  0  0  0  0  0  0  0  0
  -11.0490    8.3433    0.0000 F   0  0  0  0  0  0  0  0  0  0  0  0
  -10.5000   10.3923    0.0000 C   0  0  0  0  0  0  0  0  0  0  0  0
  -11.7990    9.6423    0.0000 F   0  0  0  0  0  0  0  0  0  0  0  0
   -9.2010   11.1423    0.0000 F   0  0  0  0  0  0  0  0  0  0  0  0
  -11.2500   11.6913    0.0000 C   0  0  0  0  0  0  0  0  0  0  0  0
  -12.0000   12.9904    0.0000 F   0  0  0  0  0  0  0  0  0  0  0  0
   -9.9510   12.4413    0.0000 F   0  0  0  0  0  0  0  0  0  0  0  0
  -12.5490   10.9413    0.0000 F   0  0  0  0  0  0  0  0  0  0  0  0
   -0.7500    1.2990    0.0000 C   0  0  0  0  0  0  0  0  0  0  0  0
    0.7500    1.2990    0.0000 C   0  0  0  0  0  0  0  0  0  0  0  0
  1  2  1  0
  2  3  2  0
  3  4  1  0
  4  5  2  0
  5  6  1  0
  6  7  1  0
  7  8  1  0
  8  9  1  0
  9 10  1  0
  9 11  1  0
  9 12  1  0
 12 13  1  0
 12 14  1  0
 12 15  1  0
 15 16  1  0
 15 17  1  0
 15 18  1  0
 18 19  1  0
 18 20  1  0
 18 21  1  0
 21 22  1  0
 21 23  1  0
 21 24  1  0
 24 25  1  0
 24 26  1  0
 24 27  1  0
 27 28  1  0
 27 29  1  0
 27 30  1  0
 30 31  1  0
 30 32  1  0
 30 33  1  0
  5 34  1  0
 34 35  2  0
 35  2  1  0
M  END
$$$$

     RDKit          2D

 21 19  0  0  0  0  0  0  0  0999 V2000
   -0.0000   -1.5000    0.0000 O   0  0  0  0  0  0  0  0  0  0  0  0
    0.0000    0.0000    0.0000 C   0  0  0  0  0  0  0  0  0  0  0  0
   -1.2990    0.7500    0.0000 O   0  0  0  0  0  0  0  0  0  0  0  0
    1.2990    0.7500    0.0000 C   0  0  0  0  0  0  0  0  0  0  0  0
    0.5490    2.0490    0.0000 F   0  0  0  0  0  0  0  0  0  0  0  0
    2.0490   -0.5490    0.0000 O   0  0  0  0  0  0  0  0  0  0  0  0
    3.5490   -0.5490    0.0000 C   0  0  0  0  0  0  0  0  0  0  0  0
    3.7319    0.9398    0.0000 F   0  0  0  0  0  0  0  0  0  0  0  0
    3.4411   -1.4282    0.0000 F   0  0  0  0  0  0  0  0  0  0  0  0
    5.0490   -0.5490    0.0000 C   0  0  0  0  0  0  0  0  0  0  0  0
    6.5490   -0.5490    0.0000 F   0  0  0  0  0  0  0  0  0  0  0  0
    5.0490    0.9510    0.0000 F   0  0  0  0  0  0  0  0  0  0  0  0
    5.0490   -2.0490    0.0000 S   0  0  0  0  0  0  0  0  0  0  0  0
    5.0490   -3.5490    0.0000 O   0  0  0  0  0  0  0  0  0  0  0  0
    6.5490   -2.0490    0.0000 O   0  0  0  0  0  0  0  0  0  0  0  0
    4.2578   -2.1462    0.0000 F   0  0  0  0  0  0  0  0  0  0  0  0
    2.5981    1.5000    0.0000 C   0  0  0  0  0  0  0  0  0  0  0  0
    3.8971    2.2500    0.0000 F   0  0  0  0  0  0  0  0  0  0  0  0
    1.8481    2.7990    0.0000 F   0  0  0  0  0  0  0  0  0  0  0  0
    3.7639    0.5561    0.0000 F   0  0  0  0  0  0  0  0  0  0  0  0
    0.0000    3.7990    0.0000 K   0  0  0  0  0 15  0  0  0  0  0  0
  1  2  2  0
  2  3  1  0
  2  4  1  0
  4  5  1  0
  4  6  1  0
  6  7  1  0
  7  8  1  0
  7  9  1  0
  7 10  1  0
 10 11  1  0
 10 12  1  0
 10 13  1  0
 13 14  2  0
 13 15  2  0
 13 16  1  0
  4 17  1  0
 17 18  1  0
 17 19  1  0
 17 20  1  0
M  CHG  2   3  -1  21   1
M  END
$$$$

     RDKit          2D

 20 19  0  0  0  0  0  0  0  0999 V2000
    5.7760   -2.5981    0.0000 C   0  0  0  0  0  0  0  0  0  0  0  0
    5.0260   -1.2990    0.0000 C   0  0  0  0  0  0  0  0  0  0  0  0
    3.5260   -1.2990    0.0000 C   0  0  0  0  0  0  0  0  0  0  0  0
    2.7760    0.0000    0.0000 C   0  0  0  0  0  0  0  0  0  0  0  0
    1.2760    0.0000    0.0000 N   0  0  0  0  0  0  0  0  0  0  0  0
    0.3943    1.2135    0.0000 C   0  0  0  0  0  0  0  0  0  0  0  0
   -1.0323    0.7500    0.0000 C   0  0  0  0  0  0  0  0  0  0  0  0
   -1.0323   -0.7500    0.0000 N   0  0  0  0  0  0  0  0  0  0  0  0
   -2.2458   -1.6317    0.0000 C   0  0  0  0  0  0  0  0  0  0  0  0
    0.3943   -1.2135    0.0000 C   0  0  0  0  0  0  0  0  0  0  0  0
   -0.8317    5.1765    0.0000 O   0  0  0  0  0  0  0  0  0  0  0  0
    0.5490    5.7626    0.0000 S   0  0  0  0  0  0  0  0  0  0  0  0
    1.8481    6.5126    0.0000 O   0  0  0  0  0  0  0  0  0  0  0  0
   -0.2010    7.0616    0.0000 O   0  0  0  0  0  0  0  0  0  0  0  0
    1.2990    4.4635    0.0000 C   0  0  0  0  0  0  0  0  0  0  0  0
    2.5981    5.2135    0.0000 F   0  0  0  0  0  0  0  0  0  0  0  0
    2.0490    3.1645    0.0000 F   0  0  0  0  0  0  0  0  0  0  0  0
   -0.0000    3.7135    0.0000 C   0  0  0  0  0  0  0  0  0  0  0  0
   -1.3808    4.2996    0.0000 F   0  0  0  0  0  0  0  0  0  0  0  0
    0.0000    2.2135    0.0000 F   0  0  0  0  0  0  0  0  0  0  0  0
  1  2  1  0
  2  3  1  0
  3  4  1  0
  4  5  1  0
  5  6  1  0
  6  7  2  0
  7  8  1  0
  8  9  1  0
  8 10  2  0
 11 12  2  0
 12 13  2  0
 12 14  1  0
 12 15  1  0
 15 16  1  0
 15 17  1  0
 15 18  1  0
 18 19  1  0
 18 20  1  0
 10  5  1  0
M  CHG  2   8   1  14  -1
M  END
$$$$

     RDKit          2D

 29 28  0  0  0  0  0  0  0  0999 V2000
   -4.5000   -2.5981    0.0000 C   0  0  0  0  0  0  0  0  0  0  0  0
   -3.0000   -2.5981    0.0000 C   0  0  0  0  0  0  0  0  0  0  0  0
   -2.2500   -1.2990    0.0000 O   0  0  0  0  0  0  0  0  0  0  0  0
   -0.7500   -1.2990    0.0000 C   0  0  0  0  0  0  0  0  0  0  0  0
    0.0000   -2.5981    0.0000 O   0  0  0  0  0  0  0  0  0  0  0  0
    0.0000    0.0000    0.0000 C   0  0  0  0  0  0  0  0  0  0  0  0
    1.5000    0.0000    0.0000 C   0  0  0  0  0  0  0  0  0  0  0  0
    2.2500    1.2990    0.0000 C   0  0  0  0  0  0  0  0  0  0  0  0
    3.5490    0.5490    0.0000 F   0  0  0  0  0  0  0  0  0  0  0  0
    0.9510    2.0490    0.0000 F   0  0  0  0  0  0  0  0  0  0  0  0
    3.0000    2.5981    0.0000 C   0  0  0  0  0  0  0  0  0  0  0  0
    1.7010    3.3481    0.0000 F   0  0  0  0  0  0  0  0  0  0  0  0
    4.2990    1.8481    0.0000 F   0  0  0  0  0  0  0  0  0  0  0  0
    3.7500    3.8971    0.0000 C   0  0  0  0  0  0  0  0  0  0  0  0
    5.0490    3.1471    0.0000 F   0  0  0  0  0  0  0  0  0  0  0  0
    2.4510    4.6471    0.0000 F   0  0  0  0  0  0  0  0  0  0  0  0
    4.5000    5.1962    0.0000 C   0  0  0  0  0  0  0  0  0  0  0  0
    3.2010    5.9462    0.0000 F   0  0  0  0  0  0  0  0  0  0  0  0
    5.7990    4.4462    0.0000 F   0  0  0  0  0  0  0  0  0  0  0  0
    5.2500    6.4952    0.0000 C   0  0  0  0  0  0  0  0  0  0  0  0
    6.5490    5.7452    0.0000 F   0  0  0  0  0  0  0  0  0  0  0  0
    3.9510    7.2452    0.0000 F   0  0  0  0  0  0  0  0  0  0  0  0
    6.0000    7.7942    0.0000 C   0  0  0  0  0  0  0  0  0  0  0  0
    4.7010    8.5442    0.0000 F   0  0  0  0  0  0  0  0  0  0  0  0
    7.2990    7.0442    0.0000 F   0  0  0  0  0  0  0  0  0  0  0  0
    6.7500    9.0933    0.0000 C   0  0  0  0  0  0  0  0  0  0  0  0
    7.5000   10.3923    0.0000 F   0  0  0  0  0  0  0  0  0  0  0  0
    8.0490    8.3433    0.0000 F   0  0  0  0  0  0  0  0  0  0  0  0
    5.4510    9.8433    0.0000 F   0  0  0  0  0  0  0  0  0  0  0  0
  1  2  1  0
  2  3  1  0
  3  4  1  0
  4  5  2  0
  4  6  1  0
  6  7  2  0
  7  8  1  0
  8  9  1  0
  8 10  1  0
  8 11  1  0
 11 12  1  0
 11 13  1  0
 11 14  1  0
 14 15  1  0
 14 16  1  0
 14 17  1  0
 17 18  1  0
 17 19  1  0
 17 20  1  0
 20 21  1  0
 20 22  1  0
 20 23  1  0
 23 24  1  0
 23 25  1  0
 23 26  1  0
 26 27  1  0
 26 28  1  0
 26 29  1  0
M  END
$$$$

     RDKit          2D

 12 12  0  0  0  0  0  0  0  0999 V2000
    2.7760    0.0000    0.0000 O   0  0  0  0  0  0  0  0  0  0  0  0
    1.2760    0.0000    0.0000 C   0  0  0  0  0  0  0  0  0  0  0  0
    0.3943    1.2135    0.0000 C   0  0  0  0  0  0  0  0  0  0  0  0
    0.8578    2.6401    0.0000 Cl  0  0  0  0  0  0  0  0  0  0  0  0
   -1.0323    0.7500    0.0000 C   0  0  0  0  0  0  0  0  0  0  0  0
   -2.2458    1.6317    0.0000 O   0  0  0  0  0  0  0  0  0  0  0  0
   -1.0323   -0.7500    0.0000 C   0  0  0  0  0  0  0  0  0  0  0  0
   -1.3442   -2.2172    0.0000 F   0  0  0  0  0  0  0  0  0  0  0  0
   -2.5241   -0.5932    0.0000 F   0  0  0  0  0  0  0  0  0  0  0  0
    0.3943   -1.2135    0.0000 C   0  0  0  0  0  0  0  0  0  0  0  0
    1.6933   -1.9635    0.0000 F   0  0  0  0  0  0  0  0  0  0  0  0
   -0.2158   -2.5838    0.0000 F   0  0  0  0  0  0  0  0  0  0  0  0
  1  2  2  0
  2  3  1  0
  3  4  1  0
  3  5  2  0
  5  6  1  0
  5  7  1  0
  7  8  1  0
  7  9  1  0
  7 10  1  0
 10 11  1  0
 10 12  1  0
 10  2  1  0
M  END
$$$$

     RDKit          2D

 20 20  0  0  0  0  0  0  0  0999 V2000
    5.2500   -3.8971    0.0000 O   0  0  0  0  0  0  0  0  0  0  0  0
    6.0000   -2.5981    0.0000 C   0  0  0  0  0  0  0  0  0  0  0  0
    5.2500   -1.2990    0.0000 C   0  0  0  0  0  0  0  0  0  0  0  0
    3.7500   -1.2990    0.0000 N   0  0  0  0  0  0  0  0  0  0  0  0
    3.0000    0.0000    0.0000 C   0  0  0  0  0  0  0  0  0  0  0  0
    1.5000    0.0000    0.0000 C   0  0  0  0  0  0  0  0  0  0  0  0
    0.7500   -1.2990    0.0000 C   0  0  0  0  0  0  0  0  0  0  0  0
   -0.7500   -1.2990    0.0000 C   0  0  0  0  0  0  0  0  0  0  0  0
   -1.5000    0.0000    0.0000 C   0  0  0  0  0  0  0  0  0  0  0  0
   -0.7500    1.2990    0.0000 C   0  0  0  0  0  0  0  0  0  0  0  0
    0.7500    1.2990    0.0000 C   0  0  0  0  0  0  0  0  0  0  0  0
    7.5000   -2.5981    0.0000 C   0  0  0  0  0  0  0  0  0  0  0  0
    8.2500   -3.8971    0.0000 O   0  0  0  0  0  0  0  0  0  0  0  0
    9.7500   -3.8971    0.0000 C   0  0  0  0  0  0  0  0  0  0  0  0
   10.5000   -5.1962    0.0000 C   0  0  0  0  0  0  0  0  0  0  0  0
   11.7990   -4.4462    0.0000 F   0  0  0  0  0  0  0  0  0  0  0  0
    9.2010   -5.9462    0.0000 F   0  0  0  0  0  0  0  0  0  0  0  0
   11.2500   -6.4952    0.0000 C   0  0  0  0  0  0  0  0  0  0  0  0
   10.5000   -7.7942    0.0000 F   0  0  0  0  0  0  0  0  0  0  0  0
   12.7500   -6.4952    0.0000 F   0  0  0  0  0  0  0  0  0  0  0  0
  1  2  1  0
  2  3  1  0
  3  4  1  0
  4  5  1  0
  5  6  1  0
  6  7  2  0
  7  8  1  0
  8  9  2  0
  9 10  1  0
 10 11  2  0
  2 12  1  0
 12 13  1  0
 13 14  1  0
 14 15  1  0
 15 16  1  0
 15 17  1  0
 15 18  1  0
 18 19  1  0
 18 20  1  0
 11  6  1  0
M  END
$$$$

     RDKit          2D

 28 27  0  0  0  0  0  0  0  0999 V2000
   -1.2990    0.7500    0.0000 O   0  0  0  0  0  0  0  0  0  0  0  0
    0.0000    0.0000    0.0000 C   0  0  0  0  0  0  0  0  0  0  0  0
   -0.0000   -1.5000    0.0000 O   0  0  0  0  0  0  0  0  0  0  0  0
   -1.2990   -2.2500    0.0000 O   0  0  0  0  0  0  0  0  0  0  0  0
   -1.2990   -3.7500    0.0000 C   0  0  0  0  0  0  0  0  0  0  0  0
   -0.0000   -4.5000    0.0000 O   0  0  0  0  0  0  0  0  0  0  0  0
   -2.5981   -4.5000    0.0000 C   0  0  0  0  0  0  0  0  0  0  0  0
   -1.8481   -5.7990    0.0000 F   0  0  0  0  0  0  0  0  0  0  0  0
   -3.3481   -3.2010    0.0000 F   0  0  0  0  0  0  0  0  0  0  0  0
   -3.8971   -5.2500    0.0000 C   0  0  0  0  0  0  0  0  0  0  0  0
   -4.6471   -3.9510    0.0000 F   0  0  0  0  0  0  0  0  0  0  0  0
   -3.1471   -6.5490    0.0000 F   0  0  0  0  0  0  0  0  0  0  0  0
   -5.1962   -6.0000    0.0000 O   0  0  0  0  0  0  0  0  0  0  0  0
   -5.1962   -7.5000    0.0000 C   0  0  0  0  0  0  0  0  0  0  0  0
   -5.1962   -9.0000    0.0000 F   0  0  0  0  0  0  0  0  0  0  0  0
   -6.6962   -7.5000    0.0000 F   0  0  0  0  0  0  0  0  0  0  0  0
   -3.6962   -7.5000    0.0000 F   0  0  0  0  0  0  0  0  0  0  0  0
    1.2990    0.7500    0.0000 C   0  0  0  0  0  0  0  0  0  0  0  0
    2.0490   -0.5490    0.0000 F   0  0  0  0  0  0  0  0  0  0  0  0
    0.5490    2.0490    0.0000 F   0  0  0  0  0  0  0  0  0  0  0  0
    2.5981    1.5000    0.0000 C   0  0  0  0  0  0  0  0  0  0  0  0
    1.8481    2.7990    0.0000 F   0  0  0  0  0  0  0  0  0  0  0  0
    3.3481    0.2010    0.0000 F   0  0  0  0  0  0  0  0  0  0  0  0
    3.8971    2.2500    0.0000 O   0  0  0  0  0  0  0  0  0  0  0  0
    5.1962    1.5000    0.0000 C   0  0  0  0  0  0  0  0  0  0  0  0
    6.4952    0.7500    0.0000 F   0  0  0  0  0  0  0  0  0  0  0  0
    5.9462    2.7990    0.0000 F   0  0  0  0  0  0  0  0  0  0  0  0
    4.4462    0.2010    0.0000 F   0  0  0  0  0  0  0  0  0  0  0  0
  1  2  2  0
  2  3  1  0
  3  4  1  0
  4  5  1  0
  5  6  2  0
  5  7  1  0
  7  8  1  0
  7  9  1  0
  7 10  1  0
 10 11  1  0
 10 12  1  0
 10 13  1  0
 13 14  1  0
 14 15  1  0
 14 16  1  0
 14 17  1  0
  2 18  1  0
 18 19  1  0
 18 20  1  0
 18 21  1  0
 21 22  1  0
 21 23  1  0
 21 24  1  0
 24 25  1  0
 25 26  1  0
 25 27  1  0
 25 28  1  0
M  END
$$$$

     RDKit          2D

 27 26  0  0  0  0  0  0  0  0999 V2000
    2.5981    0.0000    0.0000 C   0  0  0  0  0  0  0  0  0  0  0  0
    1.2990    0.7500    0.0000 C   0  0  0  0  0  0  0  0  0  0  0  0
    0.0000   -0.0000    0.0000 C   0  0  0  0  0  0  0  0  0  0  0  0
   -1.2990    0.7500    0.0000 C   0  0  0  0  0  0  0  0  0  0  0  0
   -1.2990    2.2500    0.0000 Cl  0  0  0  0  0  0  0  0  0  0  0  0
   -2.5981   -0.0000    0.0000 C   0  0  0  0  0  0  0  0  0  0  0  0
   -3.8971    0.7500    0.0000 Cl  0  0  0  0  0  0  0  0  0  0  0  0
    1.2990    2.2500    0.0000 O   0  0  0  0  0  0  0  0  0  0  0  0
    2.5981    3.0000    0.0000 C   0  0  0  0  0  0  0  0  0  0  0  0
    3.2347    2.5202    0.0000 O   0  0  0  0  0  0  0  0  0  0  0  0
    2.5981    4.5000    0.0000 C   0  0  0  0  0  0  0  0  0  0  0  0
    1.0981    4.5000    0.0000 F   0  0  0  0  0  0  0  0  0  0  0  0
    4.0981    4.5000    0.0000 O   0  0  0  0  0  0  0  0  0  0  0  0
    4.8481    3.2010    0.0000 C   0  0  0  0  0  0  0  0  0  0  0  0
    6.1471    3.9510    0.0000 F   0  0  0  0  0  0  0  0  0  0  0  0
    4.2114    2.7212    0.0000 F   0  0  0  0  0  0  0  0  0  0  0  0
    5.5981    1.9019    0.0000 C   0  0  0  0  0  0  0  0  0  0  0  0
    4.2990    1.1519    0.0000 F   0  0  0  0  0  0  0  0  0  0  0  0
    6.8971    2.6519    0.0000 F   0  0  0  0  0  0  0  0  0  0  0  0
    6.3481    0.6029    0.0000 C   0  0  0  0  0  0  0  0  0  0  0  0
    7.0981   -0.6962    0.0000 F   0  0  0  0  0  0  0  0  0  0  0  0
    7.6471    1.3529    0.0000 F   0  0  0  0  0  0  0  0  0  0  0  0
    5.0490   -0.1471    0.0000 F   0  0  0  0  0  0  0  0  0  0  0  0
    2.5981    6.0000    0.0000 C   0  0  0  0  0  0  0  0  0  0  0  0
    2.5981    7.5000    0.0000 F   0  0  0  0  0  0  0  0  0  0  0  0
    1.0981    6.0000    0.0000 F   0  0  0  0  0  0  0  0  0  0  0  0
    4.0981    6.0000    0.0000 F   0  0  0  0  0  0  0  0  0  0  0  0
  1  2  1  0
  2  3  1  0
  3  4  1  0
  4  5  1  0
  4  6  1  0
  6  7  1  0
  2  8  1  0
  8  9  1  0
  9 10  2  0
  9 11  1  0
 11 12  1  0
 11 13  1  0
 13 14  1  0
 14 15  1  0
 14 16  1  0
 14 17  1  0
 17 18  1  0
 17 19  1  0
 17 20  1  0
 20 21  1  0
 20 22  1  0
 20 23  1  0
 11 24  1  0
 24 25  1  0
 24 26  1  0
 24 27  1  0
M  END
$$$$

     RDKit          2D

 45 44  0  0  0  0  0  0  0  0999 V2000
    0.0000    0.0000    0.0000 C   0  0  0  0  0  0  0  0  0  0  0  0
    1.2990    0.7500    0.0000 C   0  0  0  0  0  0  0  0  0  0  0  0
    2.5981   -0.0000    0.0000 O   0  0  0  0  0  0  0  0  0  0  0  0
    3.8971    0.7500    0.0000 P   0  0  0  0  0  0  0  0  0  0  0  0
    3.1471    2.0490    0.0000 O   0  0  0  0  0  0  0  0  0  0  0  0
    5.1962    1.5000    0.0000 O   0  0  0  0  0  0  0  0  0  0  0  0
    4.6471   -0.5490    0.0000 C   0  0  0  0  0  0  0  0  0  0  0  0
    6.1471   -0.5490    0.0000 C   0  0  0  0  0  0  0  0  0  0  0  0
    6.8971   -1.8481    0.0000 C   0  0  0  0  0  0  0  0  0  0  0  0
    5.5981   -2.5981    0.0000 F   0  0  0  0  0  0  0  0  0  0  0  0
    8.1962   -1.0981    0.0000 O   0  0  0  0  0  0  0  0  0  0  0  0
    9.4952   -1.8481    0.0000 C   0  0  0  0  0  0  0  0  0  0  0  0
    8.9091   -3.2288    0.0000 F   0  0  0  0  0  0  0  0  0  0  0  0
   10.2452   -0.5490    0.0000 F   0  0  0  0  0  0  0  0  0  0  0  0
   10.7942   -2.5981    0.0000 C   0  0  0  0  0  0  0  0  0  0  0  0
   10.0442   -3.8971    0.0000 F   0  0  0  0  0  0  0  0  0  0  0  0
   11.5442   -1.2990    0.0000 O   0  0  0  0  0  0  0  0  0  0  0  0
   13.0442   -1.2990    0.0000 C   0  0  0  0  0  0  0  0  0  0  0  0
   13.2271   -2.7879    0.0000 F   0  0  0  0  0  0  0  0  0  0  0  0
   13.0442    0.2010    0.0000 F   0  0  0  0  0  0  0  0  0  0  0  0
   14.5442   -1.2990    0.0000 C   0  0  0  0  0  0  0  0  0  0  0  0
   14.5442   -2.7990    0.0000 F   0  0  0  0  0  0  0  0  0  0  0  0
   14.5442    0.2010    0.0000 O   0  0  0  0  0  0  0  0  0  0  0  0
   15.8433    0.9510    0.0000 C   0  0  0  0  0  0  0  0  0  0  0  0
   16.3230    0.3143    0.0000 F   0  0  0  0  0  0  0  0  0  0  0  0
   15.0933    2.2500    0.0000 F   0  0  0  0  0  0  0  0  0  0  0  0
   17.1423    1.7010    0.0000 C   0  0  0  0  0  0  0  0  0  0  0  0
   16.3923    3.0000    0.0000 F   0  0  0  0  0  0  0  0  0  0  0  0
   17.8923    0.4019    0.0000 F   0  0  0  0  0  0  0  0  0  0  0  0
   18.4413    2.4510    0.0000 C   0  0  0  0  0  0  0  0  0  0  0  0
   19.7404    3.2010    0.0000 F   0  0  0  0  0  0  0  0  0  0  0  0
   19.1913    1.1519    0.0000 F   0  0  0  0  0  0  0  0  0  0  0  0
   17.6913    3.7500    0.0000 F   0  0  0  0  0  0  0  0  0  0  0  0
   16.0442   -1.2990    0.0000 C   0  0  0  0  0  0  0  0  0  0  0  0
   17.5442   -1.2990    0.0000 F   0  0  0  0  0  0  0  0  0  0  0  0
   16.0442   -2.7990    0.0000 F   0  0  0  0  0  0  0  0  0  0  0  0
   16.3300   -0.5548    0.0000 F   0  0  0  0  0  0  0  0  0  0  0  0
   12.0933   -3.3481    0.0000 C   0  0  0  0  0  0  0  0  0  0  0  0
   13.3923   -4.0981    0.0000 F   0  0  0  0  0  0  0  0  0  0  0  0
   11.3433   -4.6471    0.0000 F   0  0  0  0  0  0  0  0  0  0  0  0
   13.2591   -2.4042    0.0000 F   0  0  0  0  0  0  0  0  0  0  0  0
    7.6471   -3.1471    0.0000 C   0  0  0  0  0  0  0  0  0  0  0  0
    8.3971   -4.4462    0.0000 F   0  0  0  0  0  0  0  0  0  0  0  0
    6.3481   -3.8971    0.0000 F   0  0  0  0  0  0  0  0  0  0  0  0
    9.1287   -2.9126    0.0000 F   0  0  0  0  0  0  0  0  0  0  0  0
  1  2  1  0
  2  3  1  0
  3  4  1  0
  4  5  2  0
  4  6  1  0
  4  7  1  0
  7  8  1  0
  8  9  1  0
  9 10  1  0
  9 11  1  0
 11 12  1  0
 12 13  1  0
 12 14  1  0
 12 15  1  0
 15 16  1  0
 15 17  1  0
 17 18  1  0
 18 19  1  0
 18 20  1  0
 18 21  1  0
 21 22  1  0
 21 23  1  0
 23 24  1  0
 24 25  1  0
 24 26  1  0
 24 27  1  0
 27 28  1  0
 27 29  1  0
 27 30  1  0
 30 31  1  0
 30 32  1  0
 30 33  1  0
 21 34  1  0
 34 35  1  0
 34 36  1  0
 34 37  1  0
 15 38  1  0
 38 39  1  0
 38 40  1  0
 38 41  1  0
  9 42  1  0
 42 43  1  0
 42 44  1  0
 42 45  1  0
M  END
$$$$

     RDKit          2D

 27 26  0  0  0  0  0  0  0  0999 V2000
    3.8971    6.7500    0.0000 C   0  0  0  0  0  0  0  0  0  0  0  0
    3.8971    5.2500    0.0000 C   0  0  0  0  0  0  0  0  0  0  0  0
    5.3971    5.2500    0.0000 F   0  0  0  0  0  0  0  0  0  0  0  0
    2.3971    5.2500    0.0000 F   0  0  0  0  0  0  0  0  0  0  0  0
    3.8971    3.7500    0.0000 C   0  0  0  0  0  0  0  0  0  0  0  0
    2.3971    3.7500    0.0000 F   0  0  0  0  0  0  0  0  0  0  0  0
    4.6883    3.8472    0.0000 F   0  0  0  0  0  0  0  0  0  0  0  0
    3.8971    2.2500    0.0000 O   0  0  0  0  0  0  0  0  0  0  0  0
    5.1962    1.5000    0.0000 C   0  0  0  0  0  0  0  0  0  0  0  0
    6.4952    0.7500    0.0000 F   0  0  0  0  0  0  0  0  0  0  0  0
    5.9462    2.7990    0.0000 C   0  0  0  0  0  0  0  0  0  0  0  0
    6.6962    4.0981    0.0000 F   0  0  0  0  0  0  0  0  0  0  0  0
    5.4445    3.4186    0.0000 F   0  0  0  0  0  0  0  0  0  0  0  0
    7.2452    2.0490    0.0000 F   0  0  0  0  0  0  0  0  0  0  0  0
    4.4462    0.2010    0.0000 C   0  0  0  0  0  0  0  0  0  0  0  0
    5.8269   -0.3851    0.0000 F   0  0  0  0  0  0  0  0  0  0  0  0
    3.1471    0.9510    0.0000 F   0  0  0  0  0  0  0  0  0  0  0  0
    3.6962   -1.0981    0.0000 O   0  0  0  0  0  0  0  0  0  0  0  0
    4.4462   -2.3971    0.0000 C   0  0  0  0  0  0  0  0  0  0  0  0
    5.1962   -3.6962    0.0000 F   0  0  0  0  0  0  0  0  0  0  0  0
    5.7452   -1.6471    0.0000 C   0  0  0  0  0  0  0  0  0  0  0  0
    5.9280   -0.1583    0.0000 O   0  0  0  0  0  0  0  0  0  0  0  0
    7.0442   -2.3971    0.0000 O   0  0  0  0  0  0  0  0  0  0  0  0
    3.1471   -3.1471    0.0000 C   0  0  0  0  0  0  0  0  0  0  0  0
    1.8481   -3.8971    0.0000 F   0  0  0  0  0  0  0  0  0  0  0  0
    3.8971   -4.4462    0.0000 F   0  0  0  0  0  0  0  0  0  0  0  0
    2.3971   -1.8481    0.0000 F   0  0  0  0  0  0  0  0  0  0  0  0
  1  2  1  0
  2  3  1  0
  2  4  1  0
  2  5  1  0
  5  6  1  0
  5  7  1  0
  5  8  1  0
  8  9  1  0
  9 10  1  0
  9 11  1  0
 11 12  1  0
 11 13  1  0
 11 14  1  0
  9 15  1  0
 15 16  1  0
 15 17  1  0
 15 18  1  0
 18 19  1  0
 19 20  1  0
 19 21  1  0
 21 22  2  0
 21 23  1  0
 19 24  1  0
 24 25  1  0
 24 26  1  0
 24 27  1  0
M  END
$$$$

     RDKit          2D

 16 15  0  0  0  0  0  0  0  0999 V2000
    0.0000    0.0000    0.0000 C   0  0  0  0  0  0  0  0  0  0  0  0
    1.2990    0.7500    0.0000 C   0  0  0  0  0  0  0  0  0  0  0  0
    2.0490   -0.5490    0.0000 F   0  0  0  0  0  0  0  0  0  0  0  0
    0.5490    2.0490    0.0000 F   0  0  0  0  0  0  0  0  0  0  0  0
    2.5981    1.5000    0.0000 C   0  0  0  0  0  0  0  0  0  0  0  0
    1.8481    2.7990    0.0000 F   0  0  0  0  0  0  0  0  0  0  0  0
    3.3481    0.2010    0.0000 F   0  0  0  0  0  0  0  0  0  0  0  0
    3.8971    2.2500    0.0000 O   0  0  0  0  0  0  0  0  0  0  0  0
    5.1962    1.5000    0.0000 C   0  0  0  0  0  0  0  0  0  0  0  0
    6.4952    0.7500    0.0000 F   0  0  0  0  0  0  0  0  0  0  0  0
    4.4462    0.2010    0.0000 C   0  0  0  0  0  0  0  0  0  0  0  0
    5.1962   -1.0981    0.0000 O   0  0  0  0  0  0  0  0  0  0  0  0
    5.9462    2.7990    0.0000 C   0  0  0  0  0  0  0  0  0  0  0  0
    6.6962    4.0981    0.0000 F   0  0  0  0  0  0  0  0  0  0  0  0
    7.2452    2.0490    0.0000 F   0  0  0  0  0  0  0  0  0  0  0  0
    4.6471    3.5490    0.0000 F   0  0  0  0  0  0  0  0  0  0  0  0
  1  2  1  0
  2  3  1  0
  2  4  1  0
  2  5  1  0
  5  6  1  0
  5  7  1  0
  5  8  1  0
  8  9  1  0
  9 10  1  0
  9 11  1  0
 11 12  1  0
  9 13  1  0
 13 14  1  0
 13 15  1  0
 13 16  1  0
M  END
$$$$

     RDKit          2D

 28 30  0  0  0  0  0  0  0  0999 V2000
    3.0000    0.0000    0.0000 F   0  0  0  0  0  0  0  0  0  0  0  0
    1.5000    0.0000    0.0000 C   0  0  0  0  0  0  0  0  0  0  0  0
    0.7500   -1.2990    0.0000 C   0  0  0  0  0  0  0  0  0  0  0  0
   -0.7500   -1.2990    0.0000 C   0  0  0  0  0  0  0  0  0  0  0  0
   -1.5000    0.0000    0.0000 C   0  0  0  0  0  0  0  0  0  0  0  0
   -2.9672    0.3119    0.0000 C   0  0  0  0  0  0  0  0  0  0  0  0
   -4.0819   -0.6918    0.0000 C   0  0  0  0  0  0  0  0  0  0  0  0
   -5.5085   -0.2283    0.0000 C   0  0  0  0  0  0  0  0  0  0  0  0
   -6.6232   -1.2320    0.0000 N   0  0  0  0  0  0  0  0  0  0  0  0
   -8.0498   -0.7685    0.0000 C   0  0  0  0  0  0  0  0  0  0  0  0
   -9.1645   -1.7722    0.0000 C   0  0  0  0  0  0  0  0  0  0  0  0
  -10.5911   -1.3086    0.0000 C   0  0  0  0  0  0  0  0  0  0  0  0
  -11.7058   -2.3123    0.0000 C   0  0  0  0  0  0  0  0  0  0  0  0
  -11.3940   -3.7796    0.0000 C   0  0  0  0  0  0  0  0  0  0  0  0
   -9.9674   -4.2431    0.0000 C   0  0  0  0  0  0  0  0  0  0  0  0
   -9.6555   -5.7103    0.0000 O   0  0  0  0  0  0  0  0  0  0  0  0
  -10.7702   -6.7140    0.0000 C   0  0  0  0  0  0  0  0  0  0  0  0
  -10.4584   -8.1812    0.0000 C   0  0  0  0  0  0  0  0  0  0  0  0
  -11.9256   -8.4931    0.0000 F   0  0  0  0  0  0  0  0  0  0  0  0
   -8.9912   -7.8694    0.0000 F   0  0  0  0  0  0  0  0  0  0  0  0
  -10.1465   -9.6484    0.0000 C   0  0  0  0  0  0  0  0  0  0  0  0
   -8.7199  -10.1120    0.0000 F   0  0  0  0  0  0  0  0  0  0  0  0
  -11.2612  -10.6521    0.0000 F   0  0  0  0  0  0  0  0  0  0  0  0
   -8.8527   -3.2394    0.0000 C   0  0  0  0  0  0  0  0  0  0  0  0
   -3.1240    1.8037    0.0000 C   0  0  0  0  0  0  0  0  0  0  0  0
   -1.7537    2.4138    0.0000 N   0  0  0  0  0  0  0  0  0  0  0  0
   -0.7500    1.2990    0.0000 C   0  0  0  0  0  0  0  0  0  0  0  0
    0.7500    1.2990    0.0000 C   0  0  0  0  0  0  0  0  0  0  0  0
  1  2  1  0
  2  3  2  0
  3  4  1  0
  4  5  2  0
  5  6  1  0
  6  7  1  0
  7  8  1  0
  8  9  1  0
  9 10  1  0
 10 11  1  0
 11 12  2  0
 12 13  1  0
 13 14  2  0
 14 15  1  0
 15 16  1  0
 16 17  1  0
 17 18  1  0
 18 19  1  0
 18 20  1  0
 18 21  1  0
 21 22  1  0
 21 23  1  0
 15 24  2  0
  6 25  2  0
 25 26  1  0
 26 27  1  0
 27 28  2  0
 28  2  1  0
 27  5  1  0
 24 11  1  0
M  END
$$$$

     RDKit          2D

 22 21  0  0  0  0  0  0  0  0999 V2000
    0.0000   -0.0000    0.0000 C   0  0  0  0  0  0  0  0  0  0  0  0
    1.2990    0.7500    0.0000 C   0  0  0  0  0  0  0  0  0  0  0  0
    1.2990    2.2500    0.0000 O   0  0  0  0  0  0  0  0  0  0  0  0
    2.5981   -0.0000    0.0000 C   0  0  0  0  0  0  0  0  0  0  0  0
    3.8971    0.7500    0.0000 O   0  0  0  0  0  0  0  0  0  0  0  0
    5.1962   -0.0000    0.0000 C   0  0  0  0  0  0  0  0  0  0  0  0
    5.9462    1.2990    0.0000 F   0  0  0  0  0  0  0  0  0  0  0  0
    4.4462   -1.2990    0.0000 O   0  0  0  0  0  0  0  0  0  0  0  0
    5.1962   -2.5981    0.0000 C   0  0  0  0  0  0  0  0  0  0  0  0
    5.9300   -2.2866    0.0000 F   0  0  0  0  0  0  0  0  0  0  0  0
    3.8971   -3.3481    0.0000 F   0  0  0  0  0  0  0  0  0  0  0  0
    5.9462   -3.8971    0.0000 C   0  0  0  0  0  0  0  0  0  0  0  0
    4.6471   -4.6471    0.0000 F   0  0  0  0  0  0  0  0  0  0  0  0
    7.2452   -3.1471    0.0000 F   0  0  0  0  0  0  0  0  0  0  0  0
    6.6962   -5.1962    0.0000 C   0  0  0  0  0  0  0  0  0  0  0  0
    7.4462   -6.4952    0.0000 F   0  0  0  0  0  0  0  0  0  0  0  0
    7.9952   -4.4462    0.0000 F   0  0  0  0  0  0  0  0  0  0  0  0
    5.3971   -5.9462    0.0000 F   0  0  0  0  0  0  0  0  0  0  0  0
    6.4952   -0.7500    0.0000 C   0  0  0  0  0  0  0  0  0  0  0  0
    7.7942   -1.5000    0.0000 F   0  0  0  0  0  0  0  0  0  0  0  0
    6.3706   -1.5374    0.0000 F   0  0  0  0  0  0  0  0  0  0  0  0
    7.2452    0.5490    0.0000 F   0  0  0  0  0  0  0  0  0  0  0  0
  1  2  1  0
  2  3  2  0
  2  4  1  0
  4  5  1  0
  5  6  1  0
  6  7  1  0
  6  8  1  0
  8  9  1  0
  9 10  1  0
  9 11  1  0
  9 12  1  0
 12 13  1  0
 12 14  1  0
 12 15  1  0
 15 16  1  0
 15 17  1  0
 15 18  1  0
  6 19  1  0
 19 20  1  0
 19 21  1  0
 19 22  1  0
M  END
$$$$

     RDKit          2D

 18 17  0  0  0  0  0  0  0  0999 V2000
    1.2990    2.2500    0.0000 C   0  0  0  0  0  0  0  0  0  0  0  0
    1.2990    0.7500    0.0000 N   0  0  0  0  0  0  0  0  0  0  0  0
    2.5981   -0.0000    0.0000 S   0  0  0  0  0  0  0  0  0  0  0  0
    3.3481    1.2990    0.0000 O   0  0  0  0  0  0  0  0  0  0  0  0
    2.1183   -0.6366    0.0000 O   0  0  0  0  0  0  0  0  0  0  0  0
    3.8971   -0.7500    0.0000 C   0  0  0  0  0  0  0  0  0  0  0  0
    4.6471    0.5490    0.0000 F   0  0  0  0  0  0  0  0  0  0  0  0
    5.1962   -1.5000    0.0000 F   0  0  0  0  0  0  0  0  0  0  0  0
    3.1471   -2.0490    0.0000 C   0  0  0  0  0  0  0  0  0  0  0  0
    2.3318   -1.7030    0.0000 F   0  0  0  0  0  0  0  0  0  0  0  0
    4.4462   -2.7990    0.0000 F   0  0  0  0  0  0  0  0  0  0  0  0
    2.3971   -3.3481    0.0000 C   0  0  0  0  0  0  0  0  0  0  0  0
    1.0981   -2.5981    0.0000 F   0  0  0  0  0  0  0  0  0  0  0  0
    3.6962   -4.0981    0.0000 F   0  0  0  0  0  0  0  0  0  0  0  0
    1.6471   -4.6471    0.0000 C   0  0  0  0  0  0  0  0  0  0  0  0
    0.8971   -5.9462    0.0000 F   0  0  0  0  0  0  0  0  0  0  0  0
    2.9462   -5.3971    0.0000 F   0  0  0  0  0  0  0  0  0  0  0  0
    0.3481   -3.8971    0.0000 F   0  0  0  0  0  0  0  0  0  0  0  0
  1  2  1  0
  2  3  1  0
  3  4  2  0
  3  5  2  0
  3  6  1  0
  6  7  1  0
  6  8  1  0
  6  9  1  0
  9 10  1  0
  9 11  1  0
  9 12  1  0
 12 13  1  0
 12 14  1  0
 12 15  1  0
 15 16  1  0
 15 17  1  0
 15 18  1  0
M  CHG  1   2  -1
M  END
$$$$

     RDKit          2D

 50 49  0  0  0  0  0  0  0  0999 V2000
    0.0000    0.0000    0.0000 C   0  0  0  0  0  0  0  0  0  0  0  0
    1.2990    0.7500    0.0000 C   0  0  0  0  0  0  0  0  0  0  0  0
    2.5981   -0.0000    0.0000 C   0  0  0  0  0  0  0  0  0  0  0  0
    3.8971    0.7500    0.0000 C   0  0  0  0  0  0  0  0  0  0  0  0
    5.1962   -0.0000    0.0000 C   0  0  0  0  0  0  0  0  0  0  0  0
    6.4952    0.7500    0.0000 C   0  0  0  0  0  0  0  0  0  0  0  0
    7.7942   -0.0000    0.0000 C   0  0  0  0  0  0  0  0  0  0  0  0
    9.0933    0.7500    0.0000 C   0  0  0  0  0  0  0  0  0  0  0  0
   10.3923   -0.0000    0.0000 C   0  0  0  0  0  0  0  0  0  0  0  0
   11.6913    0.7500    0.0000 C   0  0  0  0  0  0  0  0  0  0  0  0
   12.9904   -0.0000    0.0000 C   0  0  0  0  0  0  0  0  0  0  0  0
   14.2894    0.7500    0.0000 C   0  0  0  0  0  0  0  0  0  0  0  0
   15.5885   -0.0000    0.0000 C   0  0  0  0  0  0  0  0  0  0  0  0
   16.8875    0.7500    0.0000 C   0  0  0  0  0  0  0  0  0  0  0  0
   18.1865   -0.0000    0.0000 C   0  0  0  0  0  0  0  0  0  0  0  0
   19.4856    0.7500    0.0000 C   0  0  0  0  0  0  0  0  0  0  0  0
   20.7846   -0.0000    0.0000 C   0  0  0  0  0  0  0  0  0  0  0  0
   22.0836    0.7500    0.0000 C   0  0  0  0  0  0  0  0  0  0  0  0
   23.3827   -0.0000    0.0000 C   0  0  0  0  0  0  0  0  0  0  0  0
   24.6817    0.7500    0.0000 C   0  0  0  0  0  0  0  0  0  0  0  0
   25.9808   -0.0000    0.0000 C   0  0  0  0  0  0  0  0  0  0  0  0
   27.2798    0.7500    0.0000 C   0  0  0  0  0  0  0  0  0  0  0  0
   28.5788   -0.0000    0.0000 C   0  0  0  0  0  0  0  0  0  0  0  0
   29.8779    0.7500    0.0000 C   0  0  0  0  0  0  0  0  0  0  0  0
   31.1769   -0.0000    0.0000 C   0  0  0  0  0  0  0  0  0  0  0  0
   32.4760    0.7500    0.0000 C   0  0  0  0  0  0  0  0  0  0  0  0
   33.7750   -0.0000    0.0000 C   0  0  0  0  0  0  0  0  0  0  0  0
   35.0740    0.7500    0.0000 C   0  0  0  0  0  0  0  0  0  0  0  0
   35.0740    2.2500    0.0000 O   0  0  0  0  0  0  0  0  0  0  0  0
   36.3731   -0.0000    0.0000 O   0  0  0  0  0  0  0  0  0  0  0  0
   37.6721    0.7500    0.0000 C   0  0  0  0  0  0  0  0  0  0  0  0
   38.9711   -0.0000    0.0000 C   0  0  0  0  0  0  0  0  0  0  0  0
   40.2702    0.7500    0.0000 N   0  0  0  0  0  0  0  0  0  0  0  0
   41.5692   -0.0000    0.0000 C   0  0  0  0  0  0  0  0  0  0  0  0
   40.2702    2.2500    0.0000 S   0  0  0  0  0  0  0  0  0  0  0  0
   38.7702    2.2500    0.0000 O   0  0  0  0  0  0  0  0  0  0  0  0
   41.0614    2.1528    0.0000 O   0  0  0  0  0  0  0  0  0  0  0  0
   40.2702    3.7500    0.0000 C   0  0  0  0  0  0  0  0  0  0  0  0
   38.7702    3.7500    0.0000 F   0  0  0  0  0  0  0  0  0  0  0  0
   40.2702    5.2500    0.0000 F   0  0  0  0  0  0  0  0  0  0  0  0
   41.7702    3.7500    0.0000 C   0  0  0  0  0  0  0  0  0  0  0  0
   41.8781    2.8709    0.0000 F   0  0  0  0  0  0  0  0  0  0  0  0
   41.7702    5.2500    0.0000 F   0  0  0  0  0  0  0  0  0  0  0  0
   43.2702    3.7500    0.0000 C   0  0  0  0  0  0  0  0  0  0  0  0
   43.2702    5.2500    0.0000 F   0  0  0  0  0  0  0  0  0  0  0  0
   43.2702    2.2500    0.0000 F   0  0  0  0  0  0  0  0  0  0  0  0
   44.7702    3.7500    0.0000 C   0  0  0  0  0  0  0  0  0  0  0  0
   46.2702    3.7500    0.0000 F   0  0  0  0  0  0  0  0  0  0  0  0
   44.7702    5.2500    0.0000 F   0  0  0  0  0  0  0  0  0  0  0  0
   44.7702    2.2500    0.0000 F   0  0  0  0  0  0  0  0  0  0  0  0
  1  2  1  0
  2  3  1  0
  3  4  1  0
  4  5  1  0
  5  6  1  0
  6  7  1  0
  7  8  1  0
  8  9  1  0
  9 10  1  0
 10 11  1  0
 11 12  1  0
 12 13  1  0
 13 14  1  0
 14 15  1  0
 15 16  1  0
 16 17  1  0
 17 18  1  0
 18 19  1  0
 19 20  1  0
 20 21  1  0
 21 22  1  0
 22 23  1  0
 23 24  1  0
 24 25  1  0
 25 26  1  0
 26 27  1  0
 27 28  1  0
 28 29  2  0
 28 30  1  0
 30 31  1  0
 31 32  1  0
 32 33  1  0
 33 34  1  0
 33 35  1  0
 35 36  2  0
 35 37  2  0
 35 38  1  0
 38 39  1  0
 38 40  1  0
 38 41  1  0
 41 42  1  0
 41 43  1  0
 41 44  1  0
 44 45  1  0
 44 46  1  0
 44 47  1  0
 47 48  1  0
 47 49  1  0
 47 50  1  0
M  END
$$$$

     RDKit          2D

 40 39  0  0  0  0  0  0  0  0999 V2000
   -1.2990    0.7500    0.0000 O   0  0  0  0  0  0  0  0  0  0  0  0
    0.0000    0.0000    0.0000 C   0  0  0  0  0  0  0  0  0  0  0  0
    1.2990    0.7500    0.0000 C   0  0  0  0  0  0  0  0  0  0  0  0
    2.5981   -0.0000    0.0000 C   0  0  0  0  0  0  0  0  0  0  0  0
    3.3481    1.2990    0.0000 F   0  0  0  0  0  0  0  0  0  0  0  0
    1.8481   -1.2990    0.0000 F   0  0  0  0  0  0  0  0  0  0  0  0
    3.8971   -0.7500    0.0000 C   0  0  0  0  0  0  0  0  0  0  0  0
    3.1471   -2.0490    0.0000 F   0  0  0  0  0  0  0  0  0  0  0  0
    4.6471    0.5490    0.0000 F   0  0  0  0  0  0  0  0  0  0  0  0
    5.1962   -1.5000    0.0000 C   0  0  0  0  0  0  0  0  0  0  0  0
    5.9462   -0.2010    0.0000 F   0  0  0  0  0  0  0  0  0  0  0  0
    4.4462   -2.7990    0.0000 F   0  0  0  0  0  0  0  0  0  0  0  0
    6.4952   -2.2500    0.0000 C   0  0  0  0  0  0  0  0  0  0  0  0
    5.7452   -3.5490    0.0000 F   0  0  0  0  0  0  0  0  0  0  0  0
    7.2452   -0.9510    0.0000 F   0  0  0  0  0  0  0  0  0  0  0  0
    7.7942   -3.0000    0.0000 C   0  0  0  0  0  0  0  0  0  0  0  0
    8.5442   -1.7010    0.0000 F   0  0  0  0  0  0  0  0  0  0  0  0
    7.0442   -4.2990    0.0000 F   0  0  0  0  0  0  0  0  0  0  0  0
    9.0933   -3.7500    0.0000 C   0  0  0  0  0  0  0  0  0  0  0  0
    8.3433   -5.0490    0.0000 F   0  0  0  0  0  0  0  0  0  0  0  0
    9.8433   -2.4510    0.0000 F   0  0  0  0  0  0  0  0  0  0  0  0
   10.3923   -4.5000    0.0000 C   0  0  0  0  0  0  0  0  0  0  0  0
   11.1423   -3.2010    0.0000 F   0  0  0  0  0  0  0  0  0  0  0  0
    9.6423   -5.7990    0.0000 F   0  0  0  0  0  0  0  0  0  0  0  0
   11.6913   -5.2500    0.0000 C   0  0  0  0  0  0  0  0  0  0  0  0
   10.9413   -6.5490    0.0000 F   0  0  0  0  0  0  0  0  0  0  0  0
   12.4413   -3.9510    0.0000 F   0  0  0  0  0  0  0  0  0  0  0  0
   12.9904   -6.0000    0.0000 C   0  0  0  0  0  0  0  0  0  0  0  0
   13.7404   -4.7010    0.0000 F   0  0  0  0  0  0  0  0  0  0  0  0
   12.2404   -7.2990    0.0000 F   0  0  0  0  0  0  0  0  0  0  0  0
   14.2894   -6.7500    0.0000 C   0  0  0  0  0  0  0  0  0  0  0  0
   13.5394   -8.0490    0.0000 F   0  0  0  0  0  0  0  0  0  0  0  0
   15.0394   -5.4510    0.0000 F   0  0  0  0  0  0  0  0  0  0  0  0
   15.5885   -7.5000    0.0000 C   0  0  0  0  0  0  0  0  0  0  0  0
   16.3385   -6.2010    0.0000 F   0  0  0  0  0  0  0  0  0  0  0  0
   14.8385   -8.7990    0.0000 F   0  0  0  0  0  0  0  0  0  0  0  0
   16.8875   -8.2500    0.0000 C   0  0  0  0  0  0  0  0  0  0  0  0
   18.1865   -9.0000    0.0000 F   0  0  0  0  0  0  0  0  0  0  0  0
   16.1375   -9.5490    0.0000 F   0  0  0  0  0  0  0  0  0  0  0  0
   17.6375   -6.9510    0.0000 F   0  0  0  0  0  0  0  0  0  0  0  0
  1  2  2  0
  2  3  1  0
  3  4  1  0
  4  5  1  0
  4  6  1  0
  4  7  1  0
  7  8  1  0
  7  9  1  0
  7 10  1  0
 10 11  1  0
 10 12  1  0
 10 13  1  0
 13 14  1  0
 13 15  1  0
 13 16  1  0
 16 17  1  0
 16 18  1  0
 16 19  1  0
 19 20  1  0
 19 21  1  0
 19 22  1  0
 22 23  1  0
 22 24  1  0
 22 25  1  0
 25 26  1  0
 25 27  1  0
 25 28  1  0
 28 29  1  0
 28 30  1  0
 28 31  1  0
 31 32  1  0
 31 33  1  0
 31 34  1  0
 34 35  1  0
 34 36  1  0
 34 37  1  0
 37 38  1  0
 37 39  1  0
 37 40  1  0
M  END
$$$$

     RDKit          2D

 25 24  0  0  0  0  0  0  0  0999 V2000
   10.3923    3.0000    0.0000 C   0  0  0  0  0  0  0  0  0  0  0  0
    9.0933    2.2500    0.0000 C   0  0  0  0  0  0  0  0  0  0  0  0
    7.7942    3.0000    0.0000 N   0  0  0  0  0  0  0  0  0  0  0  0
    6.4952    2.2500    0.0000 S   0  0  0  0  0  0  0  0  0  0  0  0
    7.2452    0.9510    0.0000 O   0  0  0  0  0  0  0  0  0  0  0  0
    6.1837    2.9838    0.0000 O   0  0  0  0  0  0  0  0  0  0  0  0
    5.1962    1.5000    0.0000 C   0  0  0  0  0  0  0  0  0  0  0  0
    5.9462    0.2010    0.0000 F   0  0  0  0  0  0  0  0  0  0  0  0
    3.8971    0.7500    0.0000 F   0  0  0  0  0  0  0  0  0  0  0  0
    4.4462    2.7990    0.0000 C   0  0  0  0  0  0  0  0  0  0  0  0
    3.1471    2.0490    0.0000 F   0  0  0  0  0  0  0  0  0  0  0  0
    5.1535    3.3321    0.0000 F   0  0  0  0  0  0  0  0  0  0  0  0
    3.6962    4.0981    0.0000 C   0  0  0  0  0  0  0  0  0  0  0  0
    2.3971    3.3481    0.0000 F   0  0  0  0  0  0  0  0  0  0  0  0
    4.9952    4.8481    0.0000 F   0  0  0  0  0  0  0  0  0  0  0  0
    2.9462    5.3971    0.0000 C   0  0  0  0  0  0  0  0  0  0  0  0
    1.6471    4.6471    0.0000 F   0  0  0  0  0  0  0  0  0  0  0  0
    4.2452    6.1471    0.0000 F   0  0  0  0  0  0  0  0  0  0  0  0
    2.1962    6.6962    0.0000 C   0  0  0  0  0  0  0  0  0  0  0  0
    3.4952    7.4462    0.0000 F   0  0  0  0  0  0  0  0  0  0  0  0
    0.8971    5.9462    0.0000 F   0  0  0  0  0  0  0  0  0  0  0  0
    1.4462    7.9952    0.0000 C   0  0  0  0  0  0  0  0  0  0  0  0
    0.6962    9.2942    0.0000 F   0  0  0  0  0  0  0  0  0  0  0  0
    0.1471    7.2452    0.0000 F   0  0  0  0  0  0  0  0  0  0  0  0
    2.7452    8.7452    0.0000 F   0  0  0  0  0  0  0  0  0  0  0  0
  1  2  1  0
  2  3  1  0
  3  4  1  0
  4  5  2  0
  4  6  2  0
  4  7  1  0
  7  8  1  0
  7  9  1  0
  7 10  1  0
 10 11  1  0
 10 12  1  0
 10 13  1  0
 13 14  1  0
 13 15  1  0
 13 16  1  0
 16 17  1  0
 16 18  1  0
 16 19  1  0
 19 20  1  0
 19 21  1  0
 19 22  1  0
 22 23  1  0
 22 24  1  0
 22 25  1  0
M  END
$$$$

     RDKit          2D

  9  8  0  0  0  0  0  0  0  0999 V2000
    0.0000    0.0000    0.0000 C   0  0  0  0  0  0  0  0  0  0  0  0
    1.2990    0.7500    0.0000 C   0  0  0  0  0  0  0  0  0  0  0  0
    2.0490   -0.5490    0.0000 F   0  0  0  0  0  0  0  0  0  0  0  0
    0.5490    2.0490    0.0000 F   0  0  0  0  0  0  0  0  0  0  0  0
    2.5981    1.5000    0.0000 C   0  0  0  0  0  0  0  0  0  0  0  0
    3.3481    0.2010    0.0000 F   0  0  0  0  0  0  0  0  0  0  0  0
    1.8481    2.7990    0.0000 F   0  0  0  0  0  0  0  0  0  0  0  0
    3.8971    2.2500    0.0000 C   0  0  0  0  0  0  0  0  0  0  0  0
    5.1962    1.5000    0.0000 F   0  0  0  0  0  0  0  0  0  0  0  0
  1  2  1  0
  2  3  1  0
  2  4  1  0
  2  5  1  0
  5  6  1  0
  5  7  1  0
  5  8  1  0
  8  9  1  0
M  END
$$$$

     RDKit          2D

 13 12  0  0  0  0  0  0  0  0999 V2000
   -1.2990    0.7500    0.0000 F   0  0  0  0  0  0  0  0  0  0  0  0
    0.0000    0.0000    0.0000 C   0  0  0  0  0  0  0  0  0  0  0  0
    1.2990    0.7500    0.0000 C   0  0  0  0  0  0  0  0  0  0  0  0
    2.5981   -0.0000    0.0000 C   0  0  0  0  0  0  0  0  0  0  0  0
    1.8481   -1.2990    0.0000 F   0  0  0  0  0  0  0  0  0  0  0  0
    3.8971   -0.7500    0.0000 C   0  0  0  0  0  0  0  0  0  0  0  0
    5.1962   -1.5000    0.0000 F   0  0  0  0  0  0  0  0  0  0  0  0
    3.1471   -2.0490    0.0000 F   0  0  0  0  0  0  0  0  0  0  0  0
    4.4302   -0.0426    0.0000 F   0  0  0  0  0  0  0  0  0  0  0  0
    3.3481    1.2990    0.0000 C   0  0  0  0  0  0  0  0  0  0  0  0
    4.0981    2.5981    0.0000 F   0  0  0  0  0  0  0  0  0  0  0  0
    2.0490    2.0490    0.0000 F   0  0  0  0  0  0  0  0  0  0  0  0
    4.1634    0.9530    0.0000 F   0  0  0  0  0  0  0  0  0  0  0  0
  1  2  1  0
  2  3  2  3
  3  4  1  0
  4  5  1  0
  4  6  1  0
  6  7  1  0
  6  8  1  0
  6  9  1  0
  4 10  1  0
 10 11  1  0
 10 12  1  0
 10 13  1  0
M  END
$$$$

     RDKit          2D

 13 12  0  0  0  0  0  0  0  0999 V2000
    0.0000    0.0000    0.0000 C   0  0  0  0  0  0  0  0  0  0  0  0
    1.2990    0.7500    0.0000 C   0  0  0  0  0  0  0  0  0  0  0  0
    2.5981   -0.0000    0.0000 C   0  0  0  0  0  0  0  0  0  0  0  0
    2.5981   -1.5000    0.0000 F   0  0  0  0  0  0  0  0  0  0  0  0
    3.8971    0.7500    0.0000 C   0  0  0  0  0  0  0  0  0  0  0  0
    3.8971    2.2500    0.0000 F   0  0  0  0  0  0  0  0  0  0  0  0
    5.1962   -0.0000    0.0000 C   0  0  0  0  0  0  0  0  0  0  0  0
    5.9462    1.2990    0.0000 F   0  0  0  0  0  0  0  0  0  0  0  0
    4.4462   -1.2990    0.0000 F   0  0  0  0  0  0  0  0  0  0  0  0
    6.4952   -0.7500    0.0000 C   0  0  0  0  0  0  0  0  0  0  0  0
    7.7942   -1.5000    0.0000 F   0  0  0  0  0  0  0  0  0  0  0  0
    5.7452   -2.0490    0.0000 F   0  0  0  0  0  0  0  0  0  0  0  0
    7.2452    0.5490    0.0000 F   0  0  0  0  0  0  0  0  0  0  0  0
  1  2  1  0
  2  3  1  0
  3  4  1  0
  3  5  2  3
  5  6  1  0
  5  7  1  0
  7  8  1  0
  7  9  1  0
  7 10  1  0
 10 11  1  0
 10 12  1  0
 10 13  1  0
M  END
$$$$

     RDKit          2D

 41 40  0  0  0  0  0  0  0  0999 V2000
   18.1865   -4.5000    0.0000 C   0  0  0  0  0  0  0  0  0  0  0  0
   16.8875   -5.2500    0.0000 C   0  0  0  0  0  0  0  0  0  0  0  0
   15.5885   -4.5000    0.0000 C   0  0  0  0  0  0  0  0  0  0  0  0
   14.2894   -5.2500    0.0000 O   0  0  0  0  0  0  0  0  0  0  0  0
   15.5885   -3.0000    0.0000 O   0  0  0  0  0  0  0  0  0  0  0  0
   14.2894   -2.2500    0.0000 C   0  0  0  0  0  0  0  0  0  0  0  0
   13.5394   -3.5490    0.0000 F   0  0  0  0  0  0  0  0  0  0  0  0
   15.0394   -0.9510    0.0000 F   0  0  0  0  0  0  0  0  0  0  0  0
   12.9904   -1.5000    0.0000 C   0  0  0  0  0  0  0  0  0  0  0  0
   12.2404   -2.7990    0.0000 F   0  0  0  0  0  0  0  0  0  0  0  0
   13.7404   -0.2010    0.0000 F   0  0  0  0  0  0  0  0  0  0  0  0
   11.6913   -0.7500    0.0000 N   0  0  0  0  0  0  0  0  0  0  0  0
   11.6913    0.7500    0.0000 C   0  0  0  0  0  0  0  0  0  0  0  0
   10.3923   -1.5000    0.0000 S   0  0  0  0  0  0  0  0  0  0  0  0
   11.1423   -2.7990    0.0000 O   0  0  0  0  0  0  0  0  0  0  0  0
   10.0808   -0.7662    0.0000 O   0  0  0  0  0  0  0  0  0  0  0  0
    9.0933   -2.2500    0.0000 C   0  0  0  0  0  0  0  0  0  0  0  0
    9.8433   -3.5490    0.0000 F   0  0  0  0  0  0  0  0  0  0  0  0
    7.7942   -3.0000    0.0000 F   0  0  0  0  0  0  0  0  0  0  0  0
    8.3433   -0.9510    0.0000 C   0  0  0  0  0  0  0  0  0  0  0  0
    7.0442   -1.7010    0.0000 F   0  0  0  0  0  0  0  0  0  0  0  0
    9.0506   -0.4179    0.0000 F   0  0  0  0  0  0  0  0  0  0  0  0
    7.5933    0.3481    0.0000 C   0  0  0  0  0  0  0  0  0  0  0  0
    6.2942   -0.4019    0.0000 F   0  0  0  0  0  0  0  0  0  0  0  0
    8.8923    1.0981    0.0000 F   0  0  0  0  0  0  0  0  0  0  0  0
    6.8433    1.6471    0.0000 C   0  0  0  0  0  0  0  0  0  0  0  0
    5.5442    0.8971    0.0000 F   0  0  0  0  0  0  0  0  0  0  0  0
    8.1423    2.3971    0.0000 F   0  0  0  0  0  0  0  0  0  0  0  0
    6.0933    2.9462    0.0000 C   0  0  0  0  0  0  0  0  0  0  0  0
    7.3923    3.6962    0.0000 F   0  0  0  0  0  0  0  0  0  0  0  0
    4.7942    2.1962    0.0000 F   0  0  0  0  0  0  0  0  0  0  0  0
    5.3433    4.2452    0.0000 C   0  0  0  0  0  0  0  0  0  0  0  0
    4.0442    3.4952    0.0000 F   0  0  0  0  0  0  0  0  0  0  0  0
    6.6423    4.9952    0.0000 F   0  0  0  0  0  0  0  0  0  0  0  0
    4.5933    5.5442    0.0000 C   0  0  0  0  0  0  0  0  0  0  0  0
    5.8923    6.2942    0.0000 F   0  0  0  0  0  0  0  0  0  0  0  0
    3.2942    4.7942    0.0000 F   0  0  0  0  0  0  0  0  0  0  0  0
    3.8433    6.8433    0.0000 C   0  0  0  0  0  0  0  0  0  0  0  0
    3.0933    8.1423    0.0000 F   0  0  0  0  0  0  0  0  0  0  0  0
    2.5442    6.0933    0.0000 F   0  0  0  0  0  0  0  0  0  0  0  0
    5.1423    7.5933    0.0000 F   0  0  0  0  0  0  0  0  0  0  0  0
  1  2  2  0
  2  3  1  0
  3  4  2  0
  3  5  1  0
  5  6  1  0
  6  7  1  0
  6  8  1  0
  6  9  1  0
  9 10  1  0
  9 11  1  0
  9 12  1  0
 12 13  1  0
 12 14  1  0
 14 15  2  0
 14 16  2  0
 14 17  1  0
 17 18  1  0
 17 19  1  0
 17 20  1  0
 20 21  1  0
 20 22  1  0
 20 23  1  0
 23 24  1  0
 23 25  1  0
 23 26  1  0
 26 27  1  0
 26 28  1  0
 26 29  1  0
 29 30  1  0
 29 31  1  0
 29 32  1  0
 32 33  1  0
 32 34  1  0
 32 35  1  0
 35 36  1  0
 35 37  1  0
 35 38  1  0
 38 39  1  0
 38 40  1  0
 38 41  1  0
M  END
$$$$

     RDKit          2D

 23 22  0  0  0  0  0  0  0  0999 V2000
   -0.0000   -1.5000    0.0000 N   0  0  0  0  0  0  0  0  0  0  0  0
    0.0000    0.0000    0.0000 C   0  0  0  0  0  0  0  0  0  0  0  0
    0.0000    1.5000    0.0000 C   0  0  0  0  0  0  0  0  0  0  0  0
    0.0000    3.0000    0.0000 C   0  0  0  0  0  0  0  0  0  0  0  0
   -0.0000    4.5000    0.0000 N   0  0  0  0  0  0  0  0  0  0  0  0
    1.5000    1.5000    0.0000 C   0  0  0  0  0  0  0  0  0  0  0  0
    2.2500    2.7990    0.0000 C   0  0  0  0  0  0  0  0  0  0  0  0
    3.7500    2.7990    0.0000 C   0  0  0  0  0  0  0  0  0  0  0  0
    5.2500    2.7990    0.0000 F   0  0  0  0  0  0  0  0  0  0  0  0
    3.7500    4.2990    0.0000 F   0  0  0  0  0  0  0  0  0  0  0  0
    3.7500    1.2990    0.0000 F   0  0  0  0  0  0  0  0  0  0  0  0
   -1.5000    1.5000    0.0000 C   0  0  0  0  0  0  0  0  0  0  0  0
   -2.2500    2.7990    0.0000 C   0  0  0  0  0  0  0  0  0  0  0  0
   -3.7500    2.7990    0.0000 C   0  0  0  0  0  0  0  0  0  0  0  0
   -3.7500    1.2990    0.0000 F   0  0  0  0  0  0  0  0  0  0  0  0
   -5.2500    2.7990    0.0000 C   0  0  0  0  0  0  0  0  0  0  0  0
   -6.7500    2.7990    0.0000 F   0  0  0  0  0  0  0  0  0  0  0  0
   -5.2500    1.2990    0.0000 F   0  0  0  0  0  0  0  0  0  0  0  0
   -5.3580    3.6782    0.0000 F   0  0  0  0  0  0  0  0  0  0  0  0
   -3.7500    4.2990    0.0000 C   0  0  0  0  0  0  0  0  0  0  0  0
   -3.7500    5.7990    0.0000 F   0  0  0  0  0  0  0  0  0  0  0  0
   -4.6291    4.4070    0.0000 F   0  0  0  0  0  0  0  0  0  0  0  0
   -2.2500    4.2990    0.0000 F   0  0  0  0  0  0  0  0  0  0  0  0
  1  2  3  0
  2  3  1  0
  3  4  1  0
  4  5  3  0
  3  6  1  0
  6  7  1  0
  7  8  1  0
  8  9  1  0
  8 10  1  0
  8 11  1  0
  3 12  1  0
 12 13  1  0
 13 14  1  0
 14 15  1  0
 14 16  1  0
 16 17  1  0
 16 18  1  0
 16 19  1  0
 14 20  1  0
 20 21  1  0
 20 22  1  0
 20 23  1  0
M  END
$$$$

     RDKit          2D

 28 27  0  0  0  0  0  0  0  0999 V2000
    9.6423    7.2990    0.0000 O   0  0  0  0  0  0  0  0  0  0  0  0
    8.3433    6.5490    0.0000 S   0  0  0  0  0  0  0  0  0  0  0  0
    7.6095    6.2376    0.0000 O   0  0  0  0  0  0  0  0  0  0  0  0
    7.5933    7.8481    0.0000 O   0  0  0  0  0  0  0  0  0  0  0  0
    9.0933    5.2500    0.0000 C   0  0  0  0  0  0  0  0  0  0  0  0
   10.3923    6.0000    0.0000 F   0  0  0  0  0  0  0  0  0  0  0  0
    9.8433    3.9510    0.0000 F   0  0  0  0  0  0  0  0  0  0  0  0
    7.7942    4.5000    0.0000 C   0  0  0  0  0  0  0  0  0  0  0  0
    7.2612    5.2074    0.0000 F   0  0  0  0  0  0  0  0  0  0  0  0
    8.5442    3.2010    0.0000 F   0  0  0  0  0  0  0  0  0  0  0  0
    6.4952    3.7500    0.0000 C   0  0  0  0  0  0  0  0  0  0  0  0
    7.2452    2.4510    0.0000 F   0  0  0  0  0  0  0  0  0  0  0  0
    5.7452    5.0490    0.0000 F   0  0  0  0  0  0  0  0  0  0  0  0
    5.1962    3.0000    0.0000 C   0  0  0  0  0  0  0  0  0  0  0  0
    4.4462    4.2990    0.0000 F   0  0  0  0  0  0  0  0  0  0  0  0
    5.9462    1.7010    0.0000 F   0  0  0  0  0  0  0  0  0  0  0  0
    3.8971    2.2500    0.0000 C   0  0  0  0  0  0  0  0  0  0  0  0
    4.6471    0.9510    0.0000 F   0  0  0  0  0  0  0  0  0  0  0  0
    3.1471    3.5490    0.0000 F   0  0  0  0  0  0  0  0  0  0  0  0
    2.5981    1.5000    0.0000 C   0  0  0  0  0  0  0  0  0  0  0  0
    1.8481    2.7990    0.0000 F   0  0  0  0  0  0  0  0  0  0  0  0
    3.3481    0.2010    0.0000 F   0  0  0  0  0  0  0  0  0  0  0  0
    1.2990    0.7500    0.0000 C   0  0  0  0  0  0  0  0  0  0  0  0
    2.0490   -0.5490    0.0000 F   0  0  0  0  0  0  0  0  0  0  0  0
    0.5490    2.0490    0.0000 F   0  0  0  0  0  0  0  0  0  0  0  0
    0.0000    0.0000    0.0000 C   0  0  0  0  0  0  0  0  0  0  0  0
   -1.2990    0.7500    0.0000 F   0  0  0  0  0  0  0  0  0  0  0  0
   -0.0000   -1.5000    0.0000 F   0  0  0  0  0  0  0  0  0  0  0  0
  1  2  2  0
  2  3  2  0
  2  4  1  0
  2  5  1  0
  5  6  1  0
  5  7  1  0
  5  8  1  0
  8  9  1  0
  8 10  1  0
  8 11  1  0
 11 12  1  0
 11 13  1  0
 11 14  1  0
 14 15  1  0
 14 16  1  0
 14 17  1  0
 17 18  1  0
 17 19  1  0
 17 20  1  0
 20 21  1  0
 20 22  1  0
 20 23  1  0
 23 24  1  0
 23 25  1  0
 23 26  1  0
 26 27  1  0
 26 28  1  0
M  CHG  1   4  -1
M  END
$$$$

     RDKit          2D

 36 36  0  0  0  0  0  0  0  0999 V2000
    3.0000    0.0000    0.0000 C   0  0  0  0  0  0  0  0  0  0  0  0
    1.5000    0.0000    0.0000 C   0  0  0  0  0  0  0  0  0  0  0  0
    0.7500   -1.2990    0.0000 C   0  0  0  0  0  0  0  0  0  0  0  0
    1.5000   -2.5981    0.0000 N   0  0  0  0  0  0  0  0  0  0  0  0
   -0.7500   -1.2990    0.0000 C   0  0  0  0  0  0  0  0  0  0  0  0
   -1.5000    0.0000    0.0000 C   0  0  0  0  0  0  0  0  0  0  0  0
   -3.0000    0.0000    0.0000 N   0  0  0  0  0  0  0  0  0  0  0  0
   -0.7500    1.2990    0.0000 C   0  0  0  0  0  0  0  0  0  0  0  0
    0.7500    1.2990    0.0000 C   0  0  0  0  0  0  0  0  0  0  0  0
    1.5000    2.5981    0.0000 O   0  0  0  0  0  0  0  0  0  0  0  0
    0.7500    3.8971    0.0000 C   0  0  0  0  0  0  0  0  0  0  0  0
   -0.7500    3.8971    0.0000 F   0  0  0  0  0  0  0  0  0  0  0  0
    1.5000    5.1962    0.0000 C   0  0  0  0  0  0  0  0  0  0  0  0
    3.0000    5.1962    0.0000 F   0  0  0  0  0  0  0  0  0  0  0  0
    0.7500    6.4952    0.0000 C   0  0  0  0  0  0  0  0  0  0  0  0
    2.0490    7.2452    0.0000 F   0  0  0  0  0  0  0  0  0  0  0  0
   -0.5490    5.7452    0.0000 F   0  0  0  0  0  0  0  0  0  0  0  0
    0.0000    7.7942    0.0000 C   0  0  0  0  0  0  0  0  0  0  0  0
   -1.2990    7.0442    0.0000 F   0  0  0  0  0  0  0  0  0  0  0  0
    1.2990    8.5442    0.0000 F   0  0  0  0  0  0  0  0  0  0  0  0
   -0.7500    9.0933    0.0000 C   0  0  0  0  0  0  0  0  0  0  0  0
    0.5490    9.8433    0.0000 F   0  0  0  0  0  0  0  0  0  0  0  0
   -2.0490    8.3433    0.0000 F   0  0  0  0  0  0  0  0  0  0  0  0
   -1.5000   10.3923    0.0000 C   0  0  0  0  0  0  0  0  0  0  0  0
   -2.7990    9.6423    0.0000 F   0  0  0  0  0  0  0  0  0  0  0  0
   -0.2010   11.1423    0.0000 F   0  0  0  0  0  0  0  0  0  0  0  0
   -2.2500   11.6913    0.0000 C   0  0  0  0  0  0  0  0  0  0  0  0
   -0.9510   12.4413    0.0000 F   0  0  0  0  0  0  0  0  0  0  0  0
   -3.5490   10.9413    0.0000 F   0  0  0  0  0  0  0  0  0  0  0  0
   -3.0000   12.9904    0.0000 C   0  0  0  0  0  0  0  0  0  0  0  0
   -4.2990   12.2404    0.0000 F   0  0  0  0  0  0  0  0  0  0  0  0
   -1.7010   13.7404    0.0000 F   0  0  0  0  0  0  0  0  0  0  0  0
   -3.7500   14.2894    0.0000 C   0  0  0  0  0  0  0  0  0  0  0  0
   -4.5000   15.5885    0.0000 F   0  0  0  0  0  0  0  0  0  0  0  0
   -2.4510   15.0394    0.0000 F   0  0  0  0  0  0  0  0  0  0  0  0
   -5.0490   13.5394    0.0000 F   0  0  0  0  0  0  0  0  0  0  0  0
  1  2  1  0
  2  3  2  0
  3  4  1  0
  3  5  1  0
  5  6  2  0
  6  7  1  0
  6  8  1  0
  8  9  2  0
  9 10  1  0
 10 11  1  0
 11 12  1  0
 11 13  2  3
 13 14  1  0
 13 15  1  0
 15 16  1  0
 15 17  1  0
 15 18  1  0
 18 19  1  0
 18 20  1  0
 18 21  1  0
 21 22  1  0
 21 23  1  0
 21 24  1  0
 24 25  1  0
 24 26  1  0
 24 27  1  0
 27 28  1  0
 27 29  1  0
 27 30  1  0
 30 31  1  0
 30 32  1  0
 30 33  1  0
 33 34  1  0
 33 35  1  0
 33 36  1  0
  9  2  1  0
M  END
$$$$

     RDKit          2D

 21 20  0  0  0  0  0  0  0  0999 V2000
   -1.2990    0.7500    0.0000 O   0  0  0  0  0  0  0  0  0  0  0  0
    0.0000    0.0000    0.0000 C   0  0  0  0  0  0  0  0  0  0  0  0
    1.2990    0.7500    0.0000 C   0  0  0  0  0  0  0  0  0  0  0  0
    1.2990    2.2500    0.0000 O   0  0  0  0  0  0  0  0  0  0  0  0
    2.5981   -0.0000    0.0000 C   0  0  0  0  0  0  0  0  0  0  0  0
    3.8971    0.7500    0.0000 C   0  0  0  0  0  0  0  0  0  0  0  0
    4.6471   -0.5490    0.0000 F   0  0  0  0  0  0  0  0  0  0  0  0
    3.1471    2.0490    0.0000 F   0  0  0  0  0  0  0  0  0  0  0  0
    5.1962    1.5000    0.0000 C   0  0  0  0  0  0  0  0  0  0  0  0
    4.4462    2.7990    0.0000 F   0  0  0  0  0  0  0  0  0  0  0  0
    5.9462    0.2010    0.0000 F   0  0  0  0  0  0  0  0  0  0  0  0
    6.4952    2.2500    0.0000 C   0  0  0  0  0  0  0  0  0  0  0  0
    7.2452    0.9510    0.0000 F   0  0  0  0  0  0  0  0  0  0  0  0
    5.7452    3.5490    0.0000 F   0  0  0  0  0  0  0  0  0  0  0  0
    7.7942    3.0000    0.0000 C   0  0  0  0  0  0  0  0  0  0  0  0
    7.0442    4.2990    0.0000 F   0  0  0  0  0  0  0  0  0  0  0  0
    8.5442    1.7010    0.0000 F   0  0  0  0  0  0  0  0  0  0  0  0
    9.0933    3.7500    0.0000 C   0  0  0  0  0  0  0  0  0  0  0  0
   10.3923    4.5000    0.0000 F   0  0  0  0  0  0  0  0  0  0  0  0
    9.8433    2.4510    0.0000 F   0  0  0  0  0  0  0  0  0  0  0  0
    8.3433    5.0490    0.0000 F   0  0  0  0  0  0  0  0  0  0  0  0
  1  2  1  0
  2  3  1  0
  3  4  1  0
  3  5  1  0
  5  6  1  0
  6  7  1  0
  6  8  1  0
  6  9  1  0
  9 10  1  0
  9 11  1  0
  9 12  1  0
 12 13  1  0
 12 14  1  0
 12 15  1  0
 15 16  1  0
 15 17  1  0
 15 18  1  0
 18 19  1  0
 18 20  1  0
 18 21  1  0
M  END
$$$$

     RDKit          2D

 16 15  0  0  0  0  0  0  0  0999 V2000
    3.5490   -0.5490    0.0000 O   0  0  0  0  0  0  0  0  0  0  0  0
    2.2500   -1.2990    0.0000 P   0  0  0  0  0  0  0  0  0  0  0  0
    0.9510   -2.0490    0.0000 O   0  0  0  0  0  0  0  0  0  0  0  0
    1.5000    0.0000    0.0000 O   0  0  0  0  0  0  0  0  0  0  0  0
    0.0000    0.0000    0.0000 C   0  0  0  0  0  0  0  0  0  0  0  0
   -1.5000    0.0000    0.0000 F   0  0  0  0  0  0  0  0  0  0  0  0
    0.0000    1.5000    0.0000 F   0  0  0  0  0  0  0  0  0  0  0  0
   -0.0000   -1.5000    0.0000 F   0  0  0  0  0  0  0  0  0  0  0  0
    3.0000   -2.5981    0.0000 O   0  0  0  0  0  0  0  0  0  0  0  0
    2.2500   -3.8971    0.0000 C   0  0  0  0  0  0  0  0  0  0  0  0
    0.9510   -3.1471    0.0000 F   0  0  0  0  0  0  0  0  0  0  0  0
    3.5490   -4.6471    0.0000 F   0  0  0  0  0  0  0  0  0  0  0  0
    1.5000   -5.1962    0.0000 C   0  0  0  0  0  0  0  0  0  0  0  0
    0.7500   -6.4952    0.0000 F   0  0  0  0  0  0  0  0  0  0  0  0
    0.2010   -4.4462    0.0000 F   0  0  0  0  0  0  0  0  0  0  0  0
    2.7990   -5.9462    0.0000 F   0  0  0  0  0  0  0  0  0  0  0  0
  1  2  2  0
  2  3  1  0
  2  4  1  0
  4  5  1  0
  5  6  1  0
  5  7  1  0
  5  8  1  0
  2  9  1  0
  9 10  1  0
 10 11  1  0
 10 12  1  0
 10 13  1  0
 13 14  1  0
 13 15  1  0
 13 16  1  0
M  CHG  1   3  -1
M  END
$$$$

     RDKit          2D

 27 27  0  0  0  0  0  0  0  0999 V2000
    3.0000    0.0000    0.0000 N   0  0  0  0  0  0  0  0  0  0  0  0
    1.5000    0.0000    0.0000 C   0  0  0  0  0  0  0  0  0  0  0  0
    0.7500   -1.2990    0.0000 C   0  0  0  0  0  0  0  0  0  0  0  0
   -0.7500   -1.2990    0.0000 C   0  0  0  0  0  0  0  0  0  0  0  0
   -1.5000   -2.5981    0.0000 O   0  0  0  0  0  0  0  0  0  0  0  0
   -0.7500   -3.8971    0.0000 C   0  0  0  0  0  0  0  0  0  0  0  0
    0.7500   -3.8971    0.0000 F   0  0  0  0  0  0  0  0  0  0  0  0
   -1.5000   -5.1962    0.0000 C   0  0  0  0  0  0  0  0  0  0  0  0
   -3.0000   -5.1962    0.0000 F   0  0  0  0  0  0  0  0  0  0  0  0
   -0.7500   -6.4952    0.0000 C   0  0  0  0  0  0  0  0  0  0  0  0
   -2.0490   -7.2452    0.0000 F   0  0  0  0  0  0  0  0  0  0  0  0
    0.5490   -5.7452    0.0000 F   0  0  0  0  0  0  0  0  0  0  0  0
   -0.0000   -7.7942    0.0000 C   0  0  0  0  0  0  0  0  0  0  0  0
    1.2990   -7.0442    0.0000 F   0  0  0  0  0  0  0  0  0  0  0  0
   -1.2990   -8.5442    0.0000 F   0  0  0  0  0  0  0  0  0  0  0  0
    0.7500   -9.0933    0.0000 C   0  0  0  0  0  0  0  0  0  0  0  0
   -0.5490   -9.8433    0.0000 F   0  0  0  0  0  0  0  0  0  0  0  0
    2.0490   -8.3433    0.0000 F   0  0  0  0  0  0  0  0  0  0  0  0
    1.5000  -10.3923    0.0000 C   0  0  0  0  0  0  0  0  0  0  0  0
    2.2500  -11.6913    0.0000 F   0  0  0  0  0  0  0  0  0  0  0  0
    2.7990   -9.6423    0.0000 F   0  0  0  0  0  0  0  0  0  0  0  0
    0.2010  -11.1423    0.0000 F   0  0  0  0  0  0  0  0  0  0  0  0
   -1.5000    0.0000    0.0000 C   0  0  0  0  0  0  0  0  0  0  0  0
   -3.0000    0.0000    0.0000 N   0  0  0  0  0  0  0  0  0  0  0  0
   -0.7500    1.2990    0.0000 C   0  0  0  0  0  0  0  0  0  0  0  0
    0.7500    1.2990    0.0000 C   0  0  0  0  0  0  0  0  0  0  0  0
    1.5000    2.5981    0.0000 Br  0  0  0  0  0  0  0  0  0  0  0  0
  1  2  1  0
  2  3  2  0
  3  4  1  0
  4  5  1  0
  5  6  1  0
  6  7  1  0
  6  8  2  3
  8  9  1  0
  8 10  1  0
 10 11  1  0
 10 12  1  0
 10 13  1  0
 13 14  1  0
 13 15  1  0
 13 16  1  0
 16 17  1  0
 16 18  1  0
 16 19  1  0
 19 20  1  0
 19 21  1  0
 19 22  1  0
  4 23  2  0
 23 24  1  0
 23 25  1  0
 25 26  2  0
 26 27  1  0
 26  2  1  0
M  END
$$$$

     RDKit          2D

 18 18  0  0  0  0  0  0  0  0999 V2000
    3.0000    0.0000    0.0000 N   0  0  0  0  0  0  0  0  0  0  0  0
    1.5000    0.0000    0.0000 C   0  0  0  0  0  0  0  0  0  0  0  0
    0.7500   -1.2990    0.0000 C   0  0  0  0  0  0  0  0  0  0  0  0
   -0.7500   -1.2990    0.0000 C   0  0  0  0  0  0  0  0  0  0  0  0
   -1.5000   -2.5981    0.0000 C   0  0  0  0  0  0  0  0  0  0  0  0
   -0.2010   -3.3481    0.0000 F   0  0  0  0  0  0  0  0  0  0  0  0
   -2.2500   -3.8971    0.0000 C   0  0  0  0  0  0  0  0  0  0  0  0
   -3.0000   -5.1962    0.0000 F   0  0  0  0  0  0  0  0  0  0  0  0
   -0.9510   -4.6471    0.0000 F   0  0  0  0  0  0  0  0  0  0  0  0
   -3.0653   -3.5511    0.0000 F   0  0  0  0  0  0  0  0  0  0  0  0
   -2.7990   -1.8481    0.0000 C   0  0  0  0  0  0  0  0  0  0  0  0
   -4.0981   -1.0981    0.0000 F   0  0  0  0  0  0  0  0  0  0  0  0
   -3.3321   -2.5554    0.0000 F   0  0  0  0  0  0  0  0  0  0  0  0
   -2.3857   -0.4062    0.0000 F   0  0  0  0  0  0  0  0  0  0  0  0
   -1.5000    0.0000    0.0000 C   0  0  0  0  0  0  0  0  0  0  0  0
   -0.7500    1.2990    0.0000 C   0  0  0  0  0  0  0  0  0  0  0  0
    0.7500    1.2990    0.0000 C   0  0  0  0  0  0  0  0  0  0  0  0
    1.5000    2.5981    0.0000 O   0  0  0  0  0  0  0  0  0  0  0  0
  1  2  1  0
  2  3  2  0
  3  4  1  0
  4  5  1  0
  5  6  1  0
  5  7  1  0
  7  8  1  0
  7  9  1  0
  7 10  1  0
  5 11  1  0
 11 12  1  0
 11 13  1  0
 11 14  1  0
  4 15  2  0
 15 16  1  0
 16 17  2  0
 17 18  1  0
 17  2  1  0
M  END
$$$$

     RDKit          2D

 29 30  0  0  0  0  0  0  0  0999 V2000
    3.0000    0.0000    0.0000 C   0  0  0  0  0  0  0  0  0  0  0  0
    1.5000    0.0000    0.0000 C   0  0  0  0  0  0  0  0  0  0  0  0
    0.7500   -1.2990    0.0000 C   0  0  0  0  0  0  0  0  0  0  0  0
   -0.7500   -1.2990    0.0000 C   0  0  0  0  0  0  0  0  0  0  0  0
   -1.5000   -2.5981    0.0000 C   0  0  0  0  0  0  0  0  0  0  0  0
   -0.2010   -3.3481    0.0000 F   0  0  0  0  0  0  0  0  0  0  0  0
   -2.2500   -3.8971    0.0000 C   0  0  0  0  0  0  0  0  0  0  0  0
   -3.0000   -5.1962    0.0000 F   0  0  0  0  0  0  0  0  0  0  0  0
   -0.9510   -4.6471    0.0000 F   0  0  0  0  0  0  0  0  0  0  0  0
   -3.0653   -3.5511    0.0000 F   0  0  0  0  0  0  0  0  0  0  0  0
   -2.7990   -1.8481    0.0000 C   0  0  0  0  0  0  0  0  0  0  0  0
   -4.0981   -1.0981    0.0000 F   0  0  0  0  0  0  0  0  0  0  0  0
   -3.3321   -2.5554    0.0000 F   0  0  0  0  0  0  0  0  0  0  0  0
   -2.3857   -0.4062    0.0000 F   0  0  0  0  0  0  0  0  0  0  0  0
   -1.5000    0.0000    0.0000 C   0  0  0  0  0  0  0  0  0  0  0  0
   -0.7500    1.2990    0.0000 C   0  0  0  0  0  0  0  0  0  0  0  0
    0.7500    1.2990    0.0000 C   0  0  0  0  0  0  0  0  0  0  0  0
    1.5000    2.5981    0.0000 N   0  0  0  0  0  0  0  0  0  0  0  0
    0.7500    3.8971    0.0000 C   0  0  0  0  0  0  0  0  0  0  0  0
   -0.7500    3.8971    0.0000 O   0  0  0  0  0  0  0  0  0  0  0  0
    1.5000    5.1962    0.0000 C   0  0  0  0  0  0  0  0  0  0  0  0
    3.0000    5.1962    0.0000 C   0  0  0  0  0  0  0  0  0  0  0  0
    3.7500    6.4952    0.0000 C   0  0  0  0  0  0  0  0  0  0  0  0
    3.0000    7.7942    0.0000 C   0  0  0  0  0  0  0  0  0  0  0  0
    1.5000    7.7942    0.0000 C   0  0  0  0  0  0  0  0  0  0  0  0
    0.7500    6.4952    0.0000 C   0  0  0  0  0  0  0  0  0  0  0  0
   -0.7500    6.4952    0.0000 C   0  0  0  0  0  0  0  0  0  0  0  0
   -1.5000    7.7942    0.0000 N   0  0  0  0  0  0  0  0  0  0  0  0
   -1.5000    5.1962    0.0000 O   0  0  0  0  0  0  0  0  0  0  0  0
  1  2  1  0
  2  3  2  0
  3  4  1  0
  4  5  1  0
  5  6  1  0
  5  7  1  0
  7  8  1  0
  7  9  1  0
  7 10  1  0
  5 11  1  0
 11 12  1  0
 11 13  1  0
 11 14  1  0
  4 15  2  0
 15 16  1  0
 16 17  2  0
 17 18  1  0
 18 19  1  0
 19 20  2  0
 19 21  1  0
 21 22  2  0
 22 23  1  0
 23 24  2  0
 24 25  1  0
 25 26  2  0
 26 27  1  0
 27 28  1  0
 27 29  2  0
 17  2  1  0
 26 21  1  0
M  END
$$$$

     RDKit          2D

 20 21  0  0  0  0  0  0  0  0999 V2000
   -4.0667   -3.6527    0.0000 N   0  0  0  0  0  0  0  0  0  0  0  0
   -2.6401   -3.1891    0.0000 C   0  0  0  0  0  0  0  0  0  0  0  0
   -1.2135   -2.7256    0.0000 C   0  0  0  0  0  0  0  0  0  0  0  0
   -0.0000   -3.6073    0.0000 N   0  0  0  0  0  0  0  0  0  0  0  0
    1.2135   -2.7256    0.0000 N   0  0  0  0  0  0  0  0  0  0  0  0
    2.6401   -3.1891    0.0000 C   0  0  0  0  0  0  0  0  0  0  0  0
    2.9520   -4.6564    0.0000 C   0  0  0  0  0  0  0  0  0  0  0  0
    4.3786   -5.1199    0.0000 C   0  0  0  0  0  0  0  0  0  0  0  0
    3.9150   -6.5465    0.0000 F   0  0  0  0  0  0  0  0  0  0  0  0
    4.8421   -3.6933    0.0000 F   0  0  0  0  0  0  0  0  0  0  0  0
    5.8051   -5.5834    0.0000 C   0  0  0  0  0  0  0  0  0  0  0  0
    7.2317   -6.0469    0.0000 F   0  0  0  0  0  0  0  0  0  0  0  0
    6.2687   -4.1568    0.0000 F   0  0  0  0  0  0  0  0  0  0  0  0
    5.3416   -7.0100    0.0000 F   0  0  0  0  0  0  0  0  0  0  0  0
    0.7500   -1.2990    0.0000 C   0  0  0  0  0  0  0  0  0  0  0  0
    1.5000    0.0000    0.0000 N   0  0  0  0  0  0  0  0  0  0  0  0
    0.7500    1.2990    0.0000 C   0  0  0  0  0  0  0  0  0  0  0  0
   -0.7500    1.2990    0.0000 C   0  0  0  0  0  0  0  0  0  0  0  0
   -1.5000    0.0000    0.0000 C   0  0  0  0  0  0  0  0  0  0  0  0
   -0.7500   -1.2990    0.0000 C   0  0  0  0  0  0  0  0  0  0  0  0
  1  2  3  0
  2  3  1  0
  3  4  2  0
  4  5  1  0
  5  6  1  0
  6  7  1  0
  7  8  1  0
  8  9  1  0
  8 10  1  0
  8 11  1  0
 11 12  1  0
 11 13  1  0
 11 14  1  0
  5 15  1  0
 15 16  2  0
 16 17  1  0
 17 18  2  0
 18 19  1  0
 19 20  2  0
 20  3  1  0
 20 15  1  0
M  END
$$$$

     RDKit          2D

 32 34  0  0  0  0  0  0  0  0999 V2000
    4.5000    0.0000    0.0000 N   0  0  0  0  0  0  0  0  0  0  0  0
    3.0000    0.0000    0.0000 S   0  0  0  0  0  0  0  0  0  0  0  0
    3.0000   -1.5000    0.0000 O   0  0  0  0  0  0  0  0  0  0  0  0
    3.0000    1.5000    0.0000 O   0  0  0  0  0  0  0  0  0  0  0  0
    1.5000    0.0000    0.0000 C   0  0  0  0  0  0  0  0  0  0  0  0
    0.7500   -1.2990    0.0000 C   0  0  0  0  0  0  0  0  0  0  0  0
   -0.7500   -1.2990    0.0000 C   0  0  0  0  0  0  0  0  0  0  0  0
   -1.5000    0.0000    0.0000 C   0  0  0  0  0  0  0  0  0  0  0  0
   -3.0000    0.0000    0.0000 N   0  0  0  0  0  0  0  0  0  0  0  0
   -3.8817   -1.2135    0.0000 N   0  0  0  0  0  0  0  0  0  0  0  0
   -5.3083   -0.7500    0.0000 C   0  0  0  0  0  0  0  0  0  0  0  0
   -6.5218   -1.6317    0.0000 C   0  0  0  0  0  0  0  0  0  0  0  0
   -7.4035   -0.4182    0.0000 F   0  0  0  0  0  0  0  0  0  0  0  0
   -5.6401   -2.8452    0.0000 F   0  0  0  0  0  0  0  0  0  0  0  0
   -7.7353   -2.5134    0.0000 C   0  0  0  0  0  0  0  0  0  0  0  0
   -6.8536   -3.7269    0.0000 F   0  0  0  0  0  0  0  0  0  0  0  0
   -8.6170   -1.2998    0.0000 F   0  0  0  0  0  0  0  0  0  0  0  0
   -8.9488   -3.3950    0.0000 C   0  0  0  0  0  0  0  0  0  0  0  0
  -10.1624   -4.2767    0.0000 F   0  0  0  0  0  0  0  0  0  0  0  0
   -9.8305   -2.1815    0.0000 F   0  0  0  0  0  0  0  0  0  0  0  0
   -8.0672   -4.6086    0.0000 F   0  0  0  0  0  0  0  0  0  0  0  0
   -5.3083    0.7500    0.0000 C   0  0  0  0  0  0  0  0  0  0  0  0
   -3.8817    1.2135    0.0000 C   0  0  0  0  0  0  0  0  0  0  0  0
   -3.4182    2.6401    0.0000 C   0  0  0  0  0  0  0  0  0  0  0  0
   -1.9509    2.9520    0.0000 C   0  0  0  0  0  0  0  0  0  0  0  0
   -1.4874    4.3786    0.0000 C   0  0  0  0  0  0  0  0  0  0  0  0
   -2.4911    5.4933    0.0000 C   0  0  0  0  0  0  0  0  0  0  0  0
   -2.0276    6.9199    0.0000 Cl  0  0  0  0  0  0  0  0  0  0  0  0
   -3.9583    5.1814    0.0000 C   0  0  0  0  0  0  0  0  0  0  0  0
   -4.4218    3.7548    0.0000 C   0  0  0  0  0  0  0  0  0  0  0  0
   -0.7500    1.2990    0.0000 C   0  0  0  0  0  0  0  0  0  0  0  0
    0.7500    1.2990    0.0000 C   0  0  0  0  0  0  0  0  0  0  0  0
  1  2  1  0
  2  3  2  0
  2  4  2  0
  2  5  1  0
  5  6  2  0
  6  7  1  0
  7  8  2  0
  8  9  1  0
  9 10  1  0
 10 11  2  0
 11 12  1  0
 12 13  1  0
 12 14  1  0
 12 15  1  0
 15 16  1  0
 15 17  1  0
 15 18  1  0
 18 19  1  0
 18 20  1  0
 18 21  1  0
 11 22  1  0
 22 23  2  0
 23 24  1  0
 24 25  2  0
 25 26  1  0
 26 27  2  0
 27 28  1  0
 27 29  1  0
 29 30  2  0
  8 31  1  0
 31 32  2  0
 32  5  1  0
 23  9  1  0
 30 24  1  0
M  END
$$$$

     RDKit          2D

 28 27  0  0  0  0  0  0  0  0999 V2000
   -8.5442   -1.7010    0.0000 O   0  0  0  0  0  0  0  0  0  0  0  0
   -7.2452   -0.9510    0.0000 S   0  0  0  0  0  0  0  0  0  0  0  0
   -6.6086   -0.4712    0.0000 O   0  0  0  0  0  0  0  0  0  0  0  0
   -7.9952    0.3481    0.0000 O   0  0  0  0  0  0  0  0  0  0  0  0
   -6.4952   -2.2500    0.0000 C   0  0  0  0  0  0  0  0  0  0  0  0
   -7.7942   -3.0000    0.0000 F   0  0  0  0  0  0  0  0  0  0  0  0
   -5.7452   -3.5490    0.0000 F   0  0  0  0  0  0  0  0  0  0  0  0
   -5.1962   -1.5000    0.0000 C   0  0  0  0  0  0  0  0  0  0  0  0
   -5.5422   -0.6847    0.0000 F   0  0  0  0  0  0  0  0  0  0  0  0
   -4.4462   -2.7990    0.0000 F   0  0  0  0  0  0  0  0  0  0  0  0
   -3.8971   -0.7500    0.0000 C   0  0  0  0  0  0  0  0  0  0  0  0
   -3.1471   -2.0490    0.0000 F   0  0  0  0  0  0  0  0  0  0  0  0
   -4.6471    0.5490    0.0000 F   0  0  0  0  0  0  0  0  0  0  0  0
   -2.5981    0.0000    0.0000 C   0  0  0  0  0  0  0  0  0  0  0  0
   -3.3481    1.2990    0.0000 F   0  0  0  0  0  0  0  0  0  0  0  0
   -1.8481   -1.2990    0.0000 F   0  0  0  0  0  0  0  0  0  0  0  0
   -1.2990    0.7500    0.0000 C   0  0  0  0  0  0  0  0  0  0  0  0
   -1.2990    2.2500    0.0000 F   0  0  0  0  0  0  0  0  0  0  0  0
    0.0000    0.0000    0.0000 C   0  0  0  0  0  0  0  0  0  0  0  0
    1.2990    0.7500    0.0000 C   0  0  0  0  0  0  0  0  0  0  0  0
    2.5981   -0.0000    0.0000 C   0  0  0  0  0  0  0  0  0  0  0  0
    3.8971    0.7500    0.0000 C   0  0  0  0  0  0  0  0  0  0  0  0
    5.1962   -0.0000    0.0000 C   0  0  0  0  0  0  0  0  0  0  0  0
    6.4952    0.7500    0.0000 C   0  0  0  0  0  0  0  0  0  0  0  0
    7.7942   -0.0000    0.0000 C   0  0  0  0  0  0  0  0  0  0  0  0
    9.0933   -0.7500    0.0000 F   0  0  0  0  0  0  0  0  0  0  0  0
    8.5442    1.2990    0.0000 F   0  0  0  0  0  0  0  0  0  0  0  0
    7.0442   -1.2990    0.0000 F   0  0  0  0  0  0  0  0  0  0  0  0
  1  2  2  0
  2  3  2  0
  2  4  1  0
  2  5  1  0
  5  6  1  0
  5  7  1  0
  5  8  1  0
  8  9  1  0
  8 10  1  0
  8 11  1  0
 11 12  1  0
 11 13  1  0
 11 14  1  0
 14 15  1  0
 14 16  1  0
 14 17  1  0
 17 18  1  0
 17 19  1  0
 19 20  1  0
 20 21  1  0
 21 22  1  0
 22 23  1  0
 23 24  1  0
 24 25  1  0
 25 26  1  0
 25 27  1  0
 25 28  1  0
M  CHG  1   4  -1
M  END
$$$$

     RDKit          2D

 19 19  0  0  0  0  0  0  0  0999 V2000
    2.7944    2.2981    0.0000 F   0  0  0  0  0  0  0  0  0  0  0  0
    1.8302    1.1491    0.0000 C   0  0  0  0  0  0  0  0  0  0  0  0
    2.9793    0.1849    0.0000 F   0  0  0  0  0  0  0  0  0  0  0  0
    0.6811    2.1132    0.0000 F   0  0  0  0  0  0  0  0  0  0  0  0
    0.8660    0.0000    0.0000 C   0  0  0  0  0  0  0  0  0  0  0  0
    1.8534   -0.9207    0.0000 F   0  0  0  0  0  0  0  0  0  0  0  0
   -0.4330    0.7500    0.0000 O   0  0  0  0  0  0  0  0  0  0  0  0
   -0.4330   -0.7500    0.0000 C   0  0  0  0  0  0  0  0  0  0  0  0
   -1.5250   -0.8072    0.0000 F   0  0  0  0  0  0  0  0  0  0  0  0
    0.0800   -2.1595    0.0000 C   0  0  0  0  0  0  0  0  0  0  0  0
    1.3954   -1.8559    0.0000 F   0  0  0  0  0  0  0  0  0  0  0  0
    0.5930   -3.5691    0.0000 C   0  0  0  0  0  0  0  0  0  0  0  0
    1.1061   -4.9786    0.0000 F   0  0  0  0  0  0  0  0  0  0  0  0
   -0.1961   -3.9712    0.0000 F   0  0  0  0  0  0  0  0  0  0  0  0
    2.0026   -3.0560    0.0000 F   0  0  0  0  0  0  0  0  0  0  0  0
   -1.3295   -2.6726    0.0000 C   0  0  0  0  0  0  0  0  0  0  0  0
   -2.7391   -3.1856    0.0000 F   0  0  0  0  0  0  0  0  0  0  0  0
   -1.1303   -3.5356    0.0000 F   0  0  0  0  0  0  0  0  0  0  0  0
   -1.8260   -1.6983    0.0000 F   0  0  0  0  0  0  0  0  0  0  0  0
  1  2  1  0
  2  3  1  0
  2  4  1  0
  2  5  1  0
  5  6  1  0
  5  7  1  0
  7  8  1  0
  8  9  1  0
  8 10  1  0
 10 11  1  0
 10 12  1  0
 12 13  1  0
 12 14  1  0
 12 15  1  0
 10 16  1  0
 16 17  1  0
 16 18  1  0
 16 19  1  0
  8  5  1  0
M  END
$$$$

     RDKit          2D

 19 18  0  0  0  0  0  0  0  0999 V2000
    0.0000    1.5000    0.0000 N   0  0  0  0  0  0  0  0  0  0  0  0
    0.0000    0.0000    0.0000 C   0  0  0  0  0  0  0  0  0  0  0  0
   -0.0000   -1.5000    0.0000 S   0  0  0  0  0  0  0  0  0  0  0  0
    1.2990   -2.2500    0.0000 C   0  0  0  0  0  0  0  0  0  0  0  0
    1.2990   -3.7500    0.0000 C   0  0  0  0  0  0  0  0  0  0  0  0
    2.5981   -4.5000    0.0000 C   0  0  0  0  0  0  0  0  0  0  0  0
    2.5981   -6.0000    0.0000 C   0  0  0  0  0  0  0  0  0  0  0  0
    3.8971   -6.7500    0.0000 C   0  0  0  0  0  0  0  0  0  0  0  0
    3.8971   -8.2500    0.0000 C   0  0  0  0  0  0  0  0  0  0  0  0
    5.1962   -9.0000    0.0000 C   0  0  0  0  0  0  0  0  0  0  0  0
    5.9462   -7.7010    0.0000 F   0  0  0  0  0  0  0  0  0  0  0  0
    6.4952   -9.7500    0.0000 C   0  0  0  0  0  0  0  0  0  0  0  0
    7.7942  -10.5000    0.0000 F   0  0  0  0  0  0  0  0  0  0  0  0
    7.2452   -8.4510    0.0000 F   0  0  0  0  0  0  0  0  0  0  0  0
    6.1491  -10.5653    0.0000 F   0  0  0  0  0  0  0  0  0  0  0  0
    4.4462  -10.2990    0.0000 C   0  0  0  0  0  0  0  0  0  0  0  0
    3.6962  -11.5981    0.0000 F   0  0  0  0  0  0  0  0  0  0  0  0
    5.1535  -10.8321    0.0000 F   0  0  0  0  0  0  0  0  0  0  0  0
    3.1471   -9.5490    0.0000 F   0  0  0  0  0  0  0  0  0  0  0  0
  1  2  3  0
  2  3  1  0
  3  4  1  0
  4  5  1  0
  5  6  1  0
  6  7  1  0
  7  8  1  0
  8  9  1  0
  9 10  1  0
 10 11  1  0
 10 12  1  0
 12 13  1  0
 12 14  1  0
 12 15  1  0
 10 16  1  0
 16 17  1  0
 16 18  1  0
 16 19  1  0
M  END
$$$$

     RDKit          2D

 31 31  0  0  0  0  0  0  0  0999 V2000
    3.0000    0.0000    0.0000 C   0  0  0  0  0  0  0  0  0  0  0  0
    1.5000    0.0000    0.0000 C   0  0  0  0  0  0  0  0  0  0  0  0
    0.7500   -1.2990    0.0000 C   0  0  0  0  0  0  0  0  0  0  0  0
    1.5000   -2.5981    0.0000 O   0  0  0  0  0  0  0  0  0  0  0  0
    0.7500   -3.8971    0.0000 C   0  0  0  0  0  0  0  0  0  0  0  0
   -0.7500   -3.8971    0.0000 F   0  0  0  0  0  0  0  0  0  0  0  0
    1.5000   -5.1962    0.0000 C   0  0  0  0  0  0  0  0  0  0  0  0
    3.0000   -5.1962    0.0000 F   0  0  0  0  0  0  0  0  0  0  0  0
    0.7500   -6.4952    0.0000 C   0  0  0  0  0  0  0  0  0  0  0  0
    2.0490   -7.2452    0.0000 F   0  0  0  0  0  0  0  0  0  0  0  0
   -0.5490   -5.7452    0.0000 F   0  0  0  0  0  0  0  0  0  0  0  0
   -0.0000   -7.7942    0.0000 C   0  0  0  0  0  0  0  0  0  0  0  0
   -1.2990   -7.0442    0.0000 F   0  0  0  0  0  0  0  0  0  0  0  0
    1.2990   -8.5442    0.0000 F   0  0  0  0  0  0  0  0  0  0  0  0
   -0.7500   -9.0933    0.0000 C   0  0  0  0  0  0  0  0  0  0  0  0
    0.5490   -9.8433    0.0000 F   0  0  0  0  0  0  0  0  0  0  0  0
   -2.0490   -8.3433    0.0000 F   0  0  0  0  0  0  0  0  0  0  0  0
   -1.5000  -10.3923    0.0000 C   0  0  0  0  0  0  0  0  0  0  0  0
   -2.2500  -11.6913    0.0000 F   0  0  0  0  0  0  0  0  0  0  0  0
   -2.7990   -9.6423    0.0000 F   0  0  0  0  0  0  0  0  0  0  0  0
   -0.2010  -11.1423    0.0000 F   0  0  0  0  0  0  0  0  0  0  0  0
   -0.7500   -1.2990    0.0000 C   0  0  0  0  0  0  0  0  0  0  0  0
   -1.5000    0.0000    0.0000 C   0  0  0  0  0  0  0  0  0  0  0  0
   -3.0000    0.0000    0.0000 C   0  0  0  0  0  0  0  0  0  0  0  0
   -3.7500   -1.2990    0.0000 O   0  0  0  0  0  0  0  0  0  0  0  0
   -3.7500    1.2990    0.0000 O   0  0  0  0  0  0  0  0  0  0  0  0
   -0.7500    1.2990    0.0000 C   0  0  0  0  0  0  0  0  0  0  0  0
    0.7500    1.2990    0.0000 C   0  0  0  0  0  0  0  0  0  0  0  0
    1.5000    2.5981    0.0000 C   0  0  0  0  0  0  0  0  0  0  0  0
    3.0000    2.5981    0.0000 O   0  0  0  0  0  0  0  0  0  0  0  0
    0.7500    3.8971    0.0000 O   0  0  0  0  0  0  0  0  0  0  0  0
  1  2  1  0
  2  3  2  0
  3  4  1  0
  4  5  1  0
  5  6  1  0
  5  7  2  3
  7  8  1  0
  7  9  1  0
  9 10  1  0
  9 11  1  0
  9 12  1  0
 12 13  1  0
 12 14  1  0
 12 15  1  0
 15 16  1  0
 15 17  1  0
 15 18  1  0
 18 19  1  0
 18 20  1  0
 18 21  1  0
  3 22  1  0
 22 23  2  0
 23 24  1  0
 24 25  2  0
 24 26  1  0
 23 27  1  0
 27 28  2  0
 28 29  1  0
 29 30  2  0
 29 31  1  0
 28  2  1  0
M  END
$$$$

     RDKit          2D

 14 13  0  0  0  0  0  0  0  0999 V2000
   -1.2990    0.7500    0.0000 F   0  0  0  0  0  0  0  0  0  0  0  0
    0.0000    0.0000    0.0000 C   0  0  0  0  0  0  0  0  0  0  0  0
   -0.0000   -1.5000    0.0000 F   0  0  0  0  0  0  0  0  0  0  0  0
    1.2990    0.7500    0.0000 C   0  0  0  0  0  0  0  0  0  0  0  0
    2.0490   -0.5490    0.0000 F   0  0  0  0  0  0  0  0  0  0  0  0
    0.5490    2.0490    0.0000 F   0  0  0  0  0  0  0  0  0  0  0  0
    2.5981    1.5000    0.0000 O   0  0  0  0  0  0  0  0  0  0  0  0
    2.5981    3.0000    0.0000 C   0  0  0  0  0  0  0  0  0  0  0  0
    1.0981    3.0000    0.0000 F   0  0  0  0  0  0  0  0  0  0  0  0
    4.0981    3.0000    0.0000 F   0  0  0  0  0  0  0  0  0  0  0  0
    2.5981    4.5000    0.0000 C   0  0  0  0  0  0  0  0  0  0  0  0
    2.5981    6.0000    0.0000 F   0  0  0  0  0  0  0  0  0  0  0  0
    1.0981    4.5000    0.0000 F   0  0  0  0  0  0  0  0  0  0  0  0
    4.0981    4.5000    0.0000 F   0  0  0  0  0  0  0  0  0  0  0  0
  1  2  1  0
  2  3  1  0
  2  4  1  0
  4  5  1  0
  4  6  1  0
  4  7  1  0
  7  8  1  0
  8  9  1  0
  8 10  1  0
  8 11  1  0
 11 12  1  0
 11 13  1  0
 11 14  1  0
M  END
$$$$

     RDKit          2D

 40 42  0  0  0  0  0  0  0  0999 V2000
   -0.7500   -3.8971    0.0000 O   0  0  0  0  0  0  0  0  0  0  0  0
    0.7500   -3.8971    0.0000 C   0  0  0  0  0  0  0  0  0  0  0  0
    1.5000   -2.5981    0.0000 N   0  0  0  0  0  0  0  0  0  0  0  0
    0.7500   -1.2990    0.0000 C   0  0  0  0  0  0  0  0  0  0  0  0
    1.5000    0.0000    0.0000 C   0  0  0  0  0  0  0  0  0  0  0  0
    0.7500    1.2990    0.0000 C   0  0  0  0  0  0  0  0  0  0  0  0
   -0.7500    1.2990    0.0000 C   0  0  0  0  0  0  0  0  0  0  0  0
   -1.5000    0.0000    0.0000 C   0  0  0  0  0  0  0  0  0  0  0  0
   -3.0000    0.0000    0.0000 C   0  0  0  0  0  0  0  0  0  0  0  0
   -3.3845   -0.9059    0.0000 O   0  0  0  0  0  0  0  0  0  0  0  0
   -3.7500    1.2990    0.0000 N   0  0  0  0  0  0  0  0  0  0  0  0
   -5.2500    1.2990    0.0000 C   0  0  0  0  0  0  0  0  0  0  0  0
   -6.0000    2.5981    0.0000 C   0  0  0  0  0  0  0  0  0  0  0  0
   -5.2500    3.8971    0.0000 Br  0  0  0  0  0  0  0  0  0  0  0  0
   -7.5000    2.5981    0.0000 C   0  0  0  0  0  0  0  0  0  0  0  0
   -8.2500    1.2990    0.0000 C   0  0  0  0  0  0  0  0  0  0  0  0
   -9.7500    1.2990    0.0000 C   0  0  0  0  0  0  0  0  0  0  0  0
   -9.7500   -0.2010    0.0000 F   0  0  0  0  0  0  0  0  0  0  0  0
  -11.2500    1.2990    0.0000 C   0  0  0  0  0  0  0  0  0  0  0  0
  -12.7500    1.2990    0.0000 F   0  0  0  0  0  0  0  0  0  0  0  0
  -11.2500   -0.2010    0.0000 F   0  0  0  0  0  0  0  0  0  0  0  0
  -11.3580    2.1782    0.0000 F   0  0  0  0  0  0  0  0  0  0  0  0
   -9.7500    2.7990    0.0000 C   0  0  0  0  0  0  0  0  0  0  0  0
   -9.7500    4.2990    0.0000 F   0  0  0  0  0  0  0  0  0  0  0  0
  -10.6291    2.9070    0.0000 F   0  0  0  0  0  0  0  0  0  0  0  0
   -8.2946    3.1620    0.0000 F   0  0  0  0  0  0  0  0  0  0  0  0
   -7.5000    0.0000    0.0000 C   0  0  0  0  0  0  0  0  0  0  0  0
   -6.0000    0.0000    0.0000 C   0  0  0  0  0  0  0  0  0  0  0  0
   -5.2500   -1.2990    0.0000 C   0  0  0  0  0  0  0  0  0  0  0  0
   -4.5000   -2.5981    0.0000 F   0  0  0  0  0  0  0  0  0  0  0  0
   -6.5490   -2.0490    0.0000 F   0  0  0  0  0  0  0  0  0  0  0  0
   -4.3441   -0.9145    0.0000 F   0  0  0  0  0  0  0  0  0  0  0  0
   -0.7500   -1.2990    0.0000 C   0  0  0  0  0  0  0  0  0  0  0  0
   -1.5000   -2.5981    0.0000 F   0  0  0  0  0  0  0  0  0  0  0  0
    1.5000   -5.1962    0.0000 C   0  0  0  0  0  0  0  0  0  0  0  0
    0.7500   -6.4952    0.0000 C   0  0  0  0  0  0  0  0  0  0  0  0
    1.5000   -7.7942    0.0000 C   0  0  0  0  0  0  0  0  0  0  0  0
    3.0000   -7.7942    0.0000 C   0  0  0  0  0  0  0  0  0  0  0  0
    3.7500   -6.4952    0.0000 C   0  0  0  0  0  0  0  0  0  0  0  0
    3.0000   -5.1962    0.0000 C   0  0  0  0  0  0  0  0  0  0  0  0
  1  2  2  0
  2  3  1  0
  3  4  1  0
  4  5  2  0
  5  6  1  0
  6  7  2  0
  7  8  1  0
  8  9  1  0
  9 10  2  0
  9 11  1  0
 11 12  1  0
 12 13  2  0
 13 14  1  0
 13 15  1  0
 15 16  2  0
 16 17  1  0
 17 18  1  0
 17 19  1  0
 19 20  1  0
 19 21  1  0
 19 22  1  0
 17 23  1  0
 23 24  1  0
 23 25  1  0
 23 26  1  0
 16 27  1  0
 27 28  2  0
 28 29  1  0
 29 30  1  0
 29 31  1  0
 29 32  1  0
  8 33  2  0
 33 34  1  0
  2 35  1  0
 35 36  2  0
 36 37  1  0
 37 38  2  0
 38 39  1  0
 39 40  2  0
 33  4  1  0
 40 35  1  0
 28 12  1  0
M  END
$$$$

     RDKit          2D

 30 32  0  0  0  0  0  0  0  0999 V2000
    6.0000    0.0000    0.0000 O   0  0  0  0  0  0  0  0  0  0  0  0
    5.2500   -1.2990    0.0000 C   0  0  0  0  0  0  0  0  0  0  0  0
    6.0000   -2.5981    0.0000 O   0  0  0  0  0  0  0  0  0  0  0  0
    3.7500   -1.2990    0.0000 C   0  0  0  0  0  0  0  0  0  0  0  0
    3.0000    0.0000    0.0000 C   0  0  0  0  0  0  0  0  0  0  0  0
    1.5000    0.0000    0.0000 C   0  0  0  0  0  0  0  0  0  0  0  0
    0.7500   -1.2990    0.0000 C   0  0  0  0  0  0  0  0  0  0  0  0
   -0.7500   -1.2990    0.0000 C   0  0  0  0  0  0  0  0  0  0  0  0
   -1.5000    0.0000    0.0000 C   0  0  0  0  0  0  0  0  0  0  0  0
   -3.0000    0.0000    0.0000 C   0  0  0  0  0  0  0  0  0  0  0  0
   -3.8817   -1.2135    0.0000 N   0  0  0  0  0  0  0  0  0  0  0  0
   -5.3083   -0.7500    0.0000 C   0  0  0  0  0  0  0  0  0  0  0  0
   -5.3083    0.7500    0.0000 N   0  0  0  0  0  0  0  0  0  0  0  0
   -6.5218    1.6317    0.0000 C   0  0  0  0  0  0  0  0  0  0  0  0
   -6.3650    3.1235    0.0000 C   0  0  0  0  0  0  0  0  0  0  0  0
   -7.5785    4.0051    0.0000 C   0  0  0  0  0  0  0  0  0  0  0  0
   -8.9488    3.3950    0.0000 C   0  0  0  0  0  0  0  0  0  0  0  0
  -10.1624    4.2767    0.0000 O   0  0  0  0  0  0  0  0  0  0  0  0
  -10.0056    5.7685    0.0000 C   0  0  0  0  0  0  0  0  0  0  0  0
   -8.5138    5.6117    0.0000 F   0  0  0  0  0  0  0  0  0  0  0  0
  -11.4974    5.9253    0.0000 F   0  0  0  0  0  0  0  0  0  0  0  0
   -9.8488    7.2603    0.0000 C   0  0  0  0  0  0  0  0  0  0  0  0
   -9.6920    8.7521    0.0000 F   0  0  0  0  0  0  0  0  0  0  0  0
   -8.3570    7.1035    0.0000 F   0  0  0  0  0  0  0  0  0  0  0  0
  -11.3406    7.4171    0.0000 F   0  0  0  0  0  0  0  0  0  0  0  0
   -9.1056    1.9033    0.0000 C   0  0  0  0  0  0  0  0  0  0  0  0
   -7.8921    1.0216    0.0000 C   0  0  0  0  0  0  0  0  0  0  0  0
   -3.8817    1.2135    0.0000 N   0  0  0  0  0  0  0  0  0  0  0  0
   -0.7500    1.2990    0.0000 C   0  0  0  0  0  0  0  0  0  0  0  0
    0.7500    1.2990    0.0000 C   0  0  0  0  0  0  0  0  0  0  0  0
  1  2  2  0
  2  3  1  0
  2  4  1  0
  4  5  1  0
  5  6  1  0
  6  7  2  0
  7  8  1  0
  8  9  2  0
  9 10  1  0
 10 11  1  0
 11 12  2  0
 12 13  1  0
 13 14  1  0
 14 15  2  0
 15 16  1  0
 16 17  2  0
 17 18  1  0
 18 19  1  0
 19 20  1  0
 19 21  1  0
 19 22  1  0
 22 23  1  0
 22 24  1  0
 22 25  1  0
 17 26  1  0
 26 27  2  0
 13 28  1  0
  9 29  1  0
 29 30  2  0
 30  6  1  0
 28 10  2  0
 27 14  1  0
M  END
$$$$

     RDKit          2D

 43 46  0  0  0  0  0  0  0  0999 V2000
    3.0000    0.0000    0.0000 O   0  0  0  0  0  0  0  0  0  0  0  0
    1.5000    0.0000    0.0000 C   0  0  0  0  0  0  0  0  0  0  0  0
    0.7500   -1.2990    0.0000 C   0  0  0  0  0  0  0  0  0  0  0  0
   -0.7500   -1.2990    0.0000 C   0  0  0  0  0  0  0  0  0  0  0  0
   -1.5000    0.0000    0.0000 C   0  0  0  0  0  0  0  0  0  0  0  0
   -0.7500    1.2990    0.0000 C   0  0  0  0  0  0  0  0  0  0  0  0
    0.7500    1.2990    0.0000 C   0  0  0  0  0  0  0  0  0  0  0  0
   -1.2980    2.6953    0.0000 C   0  0  0  0  0  0  0  0  0  0  0  0
   -2.7314    3.1375    0.0000 C   0  0  0  0  0  0  0  0  0  0  0  0
   -3.9707    2.2925    0.0000 C   0  0  0  0  0  0  0  0  0  0  0  0
   -4.0828    0.7967    0.0000 C   0  0  0  0  0  0  0  0  0  0  0  0
   -5.4791    0.2487    0.0000 C   0  0  0  0  0  0  0  0  0  0  0  0
   -6.6519    1.1839    0.0000 C   0  0  0  0  0  0  0  0  0  0  0  0
   -8.0482    0.6359    0.0000 C   0  0  0  0  0  0  0  0  0  0  0  0
   -8.2718   -0.8473    0.0000 C   0  0  0  0  0  0  0  0  0  0  0  0
   -7.0990   -1.7826    0.0000 C   0  0  0  0  0  0  0  0  0  0  0  0
   -5.7027   -1.2346    0.0000 C   0  0  0  0  0  0  0  0  0  0  0  0
   -2.9832   -0.2236    0.0000 C   0  0  0  0  0  0  0  0  0  0  0  0
   -3.4254   -1.6569    0.0000 C   0  0  0  0  0  0  0  0  0  0  0  0
   -4.8878   -1.9907    0.0000 C   0  0  0  0  0  0  0  0  0  0  0  0
   -5.3299   -3.4241    0.0000 C   0  0  0  0  0  0  0  0  0  0  0  0
   -4.3096   -4.5236    0.0000 C   0  0  0  0  0  0  0  0  0  0  0  0
   -4.7518   -5.9570    0.0000 O   0  0  0  0  0  0  0  0  0  0  0  0
   -6.2142   -6.2908    0.0000 C   0  0  0  0  0  0  0  0  0  0  0  0
   -6.6563   -7.7241    0.0000 C   0  0  0  0  0  0  0  0  0  0  0  0
   -8.1187   -8.0579    0.0000 C   0  0  0  0  0  0  0  0  0  0  0  0
   -8.5608   -9.4913    0.0000 C   0  0  0  0  0  0  0  0  0  0  0  0
  -10.0232   -9.8251    0.0000 C   0  0  0  0  0  0  0  0  0  0  0  0
  -10.4654  -11.2584    0.0000 S   0  0  0  0  0  0  0  0  0  0  0  0
  -11.9277  -11.5922    0.0000 C   0  0  0  0  0  0  0  0  0  0  0  0
  -12.3699  -13.0256    0.0000 C   0  0  0  0  0  0  0  0  0  0  0  0
  -13.8323  -13.3593    0.0000 C   0  0  0  0  0  0  0  0  0  0  0  0
  -13.4985  -14.8217    0.0000 F   0  0  0  0  0  0  0  0  0  0  0  0
  -14.1660  -11.8970    0.0000 F   0  0  0  0  0  0  0  0  0  0  0  0
  -15.2947  -13.6931    0.0000 C   0  0  0  0  0  0  0  0  0  0  0  0
  -15.6284  -12.2307    0.0000 F   0  0  0  0  0  0  0  0  0  0  0  0
  -14.9609  -15.1555    0.0000 F   0  0  0  0  0  0  0  0  0  0  0  0
  -16.7571  -14.0269    0.0000 C   0  0  0  0  0  0  0  0  0  0  0  0
  -18.2194  -14.3607    0.0000 F   0  0  0  0  0  0  0  0  0  0  0  0
  -16.4233  -15.4893    0.0000 F   0  0  0  0  0  0  0  0  0  0  0  0
  -17.0908  -12.5645    0.0000 F   0  0  0  0  0  0  0  0  0  0  0  0
   -2.8473   -4.1899    0.0000 C   0  0  0  0  0  0  0  0  0  0  0  0
   -2.4051   -2.7565    0.0000 C   0  0  0  0  0  0  0  0  0  0  0  0
  1  2  1  0
  2  3  2  0
  3  4  1  0
  4  5  2  0
  5  6  1  0
  6  7  2  0
  6  8  1  0
  8  9  1  0
  9 10  1  0
 10 11  1  0
 11 12  1  0
 12 13  2  0
 13 14  1  0
 14 15  2  0
 15 16  1  0
 16 17  2  0
 11 18  2  0
 18 19  1  0
 19 20  2  0
 20 21  1  0
 21 22  2  0
 22 23  1  0
 23 24  1  0
 24 25  1  0
 25 26  1  0
 26 27  1  0
 27 28  1  0
 28 29  1  0
 29 30  1  0
 30 31  1  0
 31 32  1  0
 32 33  1  0
 32 34  1  0
 32 35  1  0
 35 36  1  0
 35 37  1  0
 35 38  1  0
 38 39  1  0
 38 40  1  0
 38 41  1  0
 22 42  1  0
 42 43  2  0
  7  2  1  0
 17 12  1  0
 43 19  1  0
 18  5  1  0
M  END
$$$$

     RDKit          2D

 19 18  0  0  0  0  0  0  0  0999 V2000
    3.3644    1.2803    0.0000 F   0  0  0  0  0  0  0  0  0  0  0  0
    2.5981    1.5000    0.0000 C   0  0  0  0  0  0  0  0  0  0  0  0
    2.5981    3.0000    0.0000 F   0  0  0  0  0  0  0  0  0  0  0  0
    1.2990    0.7500    0.0000 C   0  0  0  0  0  0  0  0  0  0  0  0
    0.5490    2.0490    0.0000 F   0  0  0  0  0  0  0  0  0  0  0  0
    2.0490   -0.5490    0.0000 O   0  0  0  0  0  0  0  0  0  0  0  0
    3.5490   -0.5490    0.0000 C   0  0  0  0  0  0  0  0  0  0  0  0
    5.0490   -0.5490    0.0000 F   0  0  0  0  0  0  0  0  0  0  0  0
    3.5490    0.9510    0.0000 C   0  0  0  0  0  0  0  0  0  0  0  0
    4.8481    1.7010    0.0000 F   0  0  0  0  0  0  0  0  0  0  0  0
    2.4701    1.9930    0.0000 F   0  0  0  0  0  0  0  0  0  0  0  0
    3.5490   -2.0490    0.0000 C   0  0  0  0  0  0  0  0  0  0  0  0
    3.5490   -3.5490    0.0000 F   0  0  0  0  0  0  0  0  0  0  0  0
    5.0490   -2.0490    0.0000 F   0  0  0  0  0  0  0  0  0  0  0  0
    2.0490   -2.0490    0.0000 F   0  0  0  0  0  0  0  0  0  0  0  0
    0.0000    0.0000    0.0000 C   0  0  0  0  0  0  0  0  0  0  0  0
   -1.2990   -0.7500    0.0000 F   0  0  0  0  0  0  0  0  0  0  0  0
   -0.7500    1.2990    0.0000 F   0  0  0  0  0  0  0  0  0  0  0  0
    0.7500   -1.2990    0.0000 F   0  0  0  0  0  0  0  0  0  0  0  0
  1  2  1  0
  2  3  1  0
  2  4  1  0
  4  5  1  0
  4  6  1  0
  6  7  1  0
  7  8  1  0
  7  9  1  0
  9 10  1  0
  9 11  1  0
  7 12  1  0
 12 13  1  0
 12 14  1  0
 12 15  1  0
  4 16  1  0
 16 17  1  0
 16 18  1  0
 16 19  1  0
M  END
$$$$

     RDKit          2D

 17 17  0  0  0  0  0  0  0  0999 V2000
    3.7500   -1.2990    0.0000 O   0  0  0  0  0  0  0  0  0  0  0  0
    3.0000    0.0000    0.0000 C   0  0  0  0  0  0  0  0  0  0  0  0
    1.5000    0.0000    0.0000 C   0  0  0  0  0  0  0  0  0  0  0  0
    0.7500   -1.2990    0.0000 C   0  0  0  0  0  0  0  0  0  0  0  0
   -0.7500   -1.2990    0.0000 C   0  0  0  0  0  0  0  0  0  0  0  0
   -1.5000    0.0000    0.0000 C   0  0  0  0  0  0  0  0  0  0  0  0
   -0.7500    1.2990    0.0000 C   0  0  0  0  0  0  0  0  0  0  0  0
   -1.5000    2.5981    0.0000 O   0  0  0  0  0  0  0  0  0  0  0  0
   -0.7500    3.8971    0.0000 C   0  0  0  0  0  0  0  0  0  0  0  0
   -1.5000    5.1962    0.0000 C   0  0  0  0  0  0  0  0  0  0  0  0
   -0.2010    5.9462    0.0000 F   0  0  0  0  0  0  0  0  0  0  0  0
   -2.7990    4.4462    0.0000 F   0  0  0  0  0  0  0  0  0  0  0  0
   -2.2500    6.4952    0.0000 C   0  0  0  0  0  0  0  0  0  0  0  0
   -3.0000    7.7942    0.0000 F   0  0  0  0  0  0  0  0  0  0  0  0
   -3.5490    5.7452    0.0000 F   0  0  0  0  0  0  0  0  0  0  0  0
   -0.9510    7.2452    0.0000 F   0  0  0  0  0  0  0  0  0  0  0  0
    0.7500    1.2990    0.0000 C   0  0  0  0  0  0  0  0  0  0  0  0
  1  2  2  0
  2  3  1  0
  3  4  2  0
  4  5  1  0
  5  6  2  0
  6  7  1  0
  7  8  1  0
  8  9  1  0
  9 10  1  0
 10 11  1  0
 10 12  1  0
 10 13  1  0
 13 14  1  0
 13 15  1  0
 13 16  1  0
  7 17  2  0
 17  3  1  0
M  END
$$$$

     RDKit          2D

 54 54  0  0  0  0  0  0  0  0999 V2000
    3.0000    0.0000    0.0000 O   0  0  0  0  0  0  0  0  0  0  0  0
    1.5000    0.0000    0.0000 C   0  0  0  0  0  0  0  0  0  0  0  0
    0.7500   -1.2990    0.0000 C   0  0  0  0  0  0  0  0  0  0  0  0
   -0.7500   -1.2990    0.0000 C   0  0  0  0  0  0  0  0  0  0  0  0
   -1.5000    0.0000    0.0000 C   0  0  0  0  0  0  0  0  0  0  0  0
   -3.0000    0.0000    0.0000 O   0  0  0  0  0  0  0  0  0  0  0  0
   -3.7500    1.2990    0.0000 C   0  0  0  0  0  0  0  0  0  0  0  0
   -2.4510    2.0490    0.0000 F   0  0  0  0  0  0  0  0  0  0  0  0
   -5.0490    0.5490    0.0000 F   0  0  0  0  0  0  0  0  0  0  0  0
   -4.5000    2.5981    0.0000 C   0  0  0  0  0  0  0  0  0  0  0  0
   -5.7990    1.8481    0.0000 F   0  0  0  0  0  0  0  0  0  0  0  0
   -3.2010    3.3481    0.0000 F   0  0  0  0  0  0  0  0  0  0  0  0
   -5.2500    3.8971    0.0000 C   0  0  0  0  0  0  0  0  0  0  0  0
   -3.9510    4.6471    0.0000 F   0  0  0  0  0  0  0  0  0  0  0  0
   -6.5490    3.1471    0.0000 F   0  0  0  0  0  0  0  0  0  0  0  0
   -6.0000    5.1962    0.0000 C   0  0  0  0  0  0  0  0  0  0  0  0
   -7.2990    4.4462    0.0000 F   0  0  0  0  0  0  0  0  0  0  0  0
   -4.7010    5.9462    0.0000 F   0  0  0  0  0  0  0  0  0  0  0  0
   -6.7500    6.4952    0.0000 C   0  0  0  0  0  0  0  0  0  0  0  0
   -5.4510    7.2452    0.0000 F   0  0  0  0  0  0  0  0  0  0  0  0
   -8.0490    5.7452    0.0000 F   0  0  0  0  0  0  0  0  0  0  0  0
   -7.5000    7.7942    0.0000 C   0  0  0  0  0  0  0  0  0  0  0  0
   -8.7990    7.0442    0.0000 F   0  0  0  0  0  0  0  0  0  0  0  0
   -6.2010    8.5442    0.0000 F   0  0  0  0  0  0  0  0  0  0  0  0
   -8.2500    9.0933    0.0000 C   0  0  0  0  0  0  0  0  0  0  0  0
   -6.9510    9.8433    0.0000 F   0  0  0  0  0  0  0  0  0  0  0  0
   -9.5490    8.3433    0.0000 F   0  0  0  0  0  0  0  0  0  0  0  0
   -9.0000   10.3923    0.0000 C   0  0  0  0  0  0  0  0  0  0  0  0
   -7.7010   11.1423    0.0000 F   0  0  0  0  0  0  0  0  0  0  0  0
  -10.2990    9.6423    0.0000 F   0  0  0  0  0  0  0  0  0  0  0  0
   -9.7500   11.6913    0.0000 C   0  0  0  0  0  0  0  0  0  0  0  0
  -11.0490   10.9413    0.0000 F   0  0  0  0  0  0  0  0  0  0  0  0
   -8.4510   12.4413    0.0000 F   0  0  0  0  0  0  0  0  0  0  0  0
  -10.5000   12.9904    0.0000 C   0  0  0  0  0  0  0  0  0  0  0  0
   -9.2010   13.7404    0.0000 F   0  0  0  0  0  0  0  0  0  0  0  0
  -11.7990   12.2404    0.0000 F   0  0  0  0  0  0  0  0  0  0  0  0
  -11.2500   14.2894    0.0000 C   0  0  0  0  0  0  0  0  0  0  0  0
  -12.5490   13.5394    0.0000 F   0  0  0  0  0  0  0  0  0  0  0  0
   -9.9510   15.0394    0.0000 F   0  0  0  0  0  0  0  0  0  0  0  0
  -12.0000   15.5885    0.0000 C   0  0  0  0  0  0  0  0  0  0  0  0
  -10.7010   16.3385    0.0000 F   0  0  0  0  0  0  0  0  0  0  0  0
  -13.2990   14.8385    0.0000 F   0  0  0  0  0  0  0  0  0  0  0  0
  -12.7500   16.8875    0.0000 C   0  0  0  0  0  0  0  0  0  0  0  0
  -14.0490   16.1375    0.0000 F   0  0  0  0  0  0  0  0  0  0  0  0
  -11.4510   17.6375    0.0000 F   0  0  0  0  0  0  0  0  0  0  0  0
  -13.5000   18.1865    0.0000 C   0  0  0  0  0  0  0  0  0  0  0  0
  -12.2010   18.9365    0.0000 F   0  0  0  0  0  0  0  0  0  0  0  0
  -14.7990   17.4365    0.0000 F   0  0  0  0  0  0  0  0  0  0  0  0
  -14.2500   19.4856    0.0000 C   0  0  0  0  0  0  0  0  0  0  0  0
  -15.0000   20.7846    0.0000 F   0  0  0  0  0  0  0  0  0  0  0  0
  -15.5490   18.7356    0.0000 F   0  0  0  0  0  0  0  0  0  0  0  0
  -12.9510   20.2356    0.0000 F   0  0  0  0  0  0  0  0  0  0  0  0
   -0.7500    1.2990    0.0000 C   0  0  0  0  0  0  0  0  0  0  0  0
    0.7500    1.2990    0.0000 C   0  0  0  0  0  0  0  0  0  0  0  0
  1  2  1  0
  2  3  2  0
  3  4  1  0
  4  5  2  0
  5  6  1  0
  6  7  1  0
  7  8  1  0
  7  9  1  0
  7 10  1  0
 10 11  1  0
 10 12  1  0
 10 13  1  0
 13 14  1  0
 13 15  1  0
 13 16  1  0
 16 17  1  0
 16 18  1  0
 16 19  1  0
 19 20  1  0
 19 21  1  0
 19 22  1  0
 22 23  1  0
 22 24  1  0
 22 25  1  0
 25 26  1  0
 25 27  1  0
 25 28  1  0
 28 29  1  0
 28 30  1  0
 28 31  1  0
 31 32  1  0
 31 33  1  0
 31 34  1  0
 34 35  1  0
 34 36  1  0
 34 37  1  0
 37 38  1  0
 37 39  1  0
 37 40  1  0
 40 41  1  0
 40 42  1  0
 40 43  1  0
 43 44  1  0
 43 45  1  0
 43 46  1  0
 46 47  1  0
 46 48  1  0
 46 49  1  0
 49 50  1  0
 49 51  1  0
 49 52  1  0
  5 53  1  0
 53 54  2  0
 54  2  1  0
M  END
$$$$

     RDKit          2D

 22 21  0  0  0  0  0  0  0  0999 V2000
    1.2990   -2.2500    0.0000 C   0  0  0  0  0  0  0  0  0  0  0  0
    2.5981   -1.5000    0.0000 C   0  0  0  0  0  0  0  0  0  0  0  0
    2.5981    0.0000    0.0000 O   0  0  0  0  0  0  0  0  0  0  0  0
    3.8971    0.7500    0.0000 Si  0  0  0  0  0  4  0  0  0  0  0  0
    4.6471   -0.5490    0.0000 O   0  0  0  0  0  0  0  0  0  0  0  0
    3.8971   -1.8481    0.0000 C   0  0  0  0  0  0  0  0  0  0  0  0
    4.6471   -3.1471    0.0000 C   0  0  0  0  0  0  0  0  0  0  0  0
    3.1471    2.0490    0.0000 O   0  0  0  0  0  0  0  0  0  0  0  0
    3.8971    3.3481    0.0000 C   0  0  0  0  0  0  0  0  0  0  0  0
    3.1471    4.6471    0.0000 C   0  0  0  0  0  0  0  0  0  0  0  0
    5.1962    1.5000    0.0000 C   0  0  0  0  0  0  0  0  0  0  0  0
    5.9462    0.2010    0.0000 F   0  0  0  0  0  0  0  0  0  0  0  0
    6.4952    2.2500    0.0000 F   0  0  0  0  0  0  0  0  0  0  0  0
    4.4462    2.7990    0.0000 C   0  0  0  0  0  0  0  0  0  0  0  0
    3.6799    2.5794    0.0000 F   0  0  0  0  0  0  0  0  0  0  0  0
    5.7452    3.5490    0.0000 F   0  0  0  0  0  0  0  0  0  0  0  0
    3.6962    4.0981    0.0000 C   0  0  0  0  0  0  0  0  0  0  0  0
    4.4462    5.3971    0.0000 C   0  0  0  0  0  0  0  0  0  0  0  0
    3.6962    6.6962    0.0000 C   0  0  0  0  0  0  0  0  0  0  0  0
    2.9462    7.9952    0.0000 F   0  0  0  0  0  0  0  0  0  0  0  0
    4.9952    7.4462    0.0000 F   0  0  0  0  0  0  0  0  0  0  0  0
    2.3971    5.9462    0.0000 F   0  0  0  0  0  0  0  0  0  0  0  0
  1  2  1  0
  2  3  1  0
  3  4  1  0
  4  5  1  0
  5  6  1  0
  6  7  1  0
  4  8  1  0
  8  9  1  0
  9 10  1  0
  4 11  1  0
 11 12  1  0
 11 13  1  0
 11 14  1  0
 14 15  1  0
 14 16  1  0
 14 17  1  0
 17 18  1  0
 18 19  1  0
 19 20  1  0
 19 21  1  0
 19 22  1  0
M  END
$$$$

     RDKit          2D

 42 41  0  0  0  0  0  0  0  0999 V2000
   -0.0000   -0.0000    0.0000 C   0  0  0  0  0  0  0  0  0  0  0  0
    1.2990    0.7500    0.0000 C   0  0  0  0  0  0  0  0  0  0  0  0
    2.5981   -0.0000    0.0000 C   0  0  0  0  0  0  0  0  0  0  0  0
    3.8971    0.7500    0.0000 N   0  0  0  0  0  0  0  0  0  0  0  0
    5.1962    0.0000    0.0000 C   0  0  0  0  0  0  0  0  0  0  0  0
    6.4952    0.7500    0.0000 C   0  0  0  0  0  0  0  0  0  0  0  0
    7.7942   -0.0000    0.0000 C   0  0  0  0  0  0  0  0  0  0  0  0
    9.0933    0.7500    0.0000 Si  0  0  0  0  0  4  0  0  0  0  0  0
   10.3923    1.5000    0.0000 O   0  0  0  0  0  0  0  0  0  0  0  0
   10.3923    3.0000    0.0000 C   0  0  0  0  0  0  0  0  0  0  0  0
    9.8433   -0.5490    0.0000 O   0  0  0  0  0  0  0  0  0  0  0  0
   11.3433   -0.5490    0.0000 C   0  0  0  0  0  0  0  0  0  0  0  0
    8.3433    2.0490    0.0000 O   0  0  0  0  0  0  0  0  0  0  0  0
    9.0933    3.3481    0.0000 C   0  0  0  0  0  0  0  0  0  0  0  0
    3.8971    2.2500    0.0000 S   0  0  0  0  0  0  0  0  0  0  0  0
    3.1059    2.1528    0.0000 O   0  0  0  0  0  0  0  0  0  0  0  0
    5.3971    2.2500    0.0000 O   0  0  0  0  0  0  0  0  0  0  0  0
    3.8971    3.7500    0.0000 C   0  0  0  0  0  0  0  0  0  0  0  0
    5.3971    3.7500    0.0000 F   0  0  0  0  0  0  0  0  0  0  0  0
    3.8971    5.2500    0.0000 F   0  0  0  0  0  0  0  0  0  0  0  0
    2.3971    3.7500    0.0000 C   0  0  0  0  0  0  0  0  0  0  0  0
    2.2891    2.8709    0.0000 F   0  0  0  0  0  0  0  0  0  0  0  0
    2.3971    5.2500    0.0000 F   0  0  0  0  0  0  0  0  0  0  0  0
    0.8971    3.7500    0.0000 C   0  0  0  0  0  0  0  0  0  0  0  0
    0.8971    2.2500    0.0000 F   0  0  0  0  0  0  0  0  0  0  0  0
    0.8971    5.2500    0.0000 F   0  0  0  0  0  0  0  0  0  0  0  0
   -0.6029    3.7500    0.0000 C   0  0  0  0  0  0  0  0  0  0  0  0
   -0.6029    2.2500    0.0000 F   0  0  0  0  0  0  0  0  0  0  0  0
   -0.6029    5.2500    0.0000 F   0  0  0  0  0  0  0  0  0  0  0  0
   -2.1029    3.7500    0.0000 C   0  0  0  0  0  0  0  0  0  0  0  0
   -2.1029    2.2500    0.0000 F   0  0  0  0  0  0  0  0  0  0  0  0
   -2.1029    5.2500    0.0000 F   0  0  0  0  0  0  0  0  0  0  0  0
   -3.6029    3.7500    0.0000 C   0  0  0  0  0  0  0  0  0  0  0  0
   -3.6029    5.2500    0.0000 F   0  0  0  0  0  0  0  0  0  0  0  0
   -3.6029    2.2500    0.0000 F   0  0  0  0  0  0  0  0  0  0  0  0
   -5.1029    3.7500    0.0000 C   0  0  0  0  0  0  0  0  0  0  0  0
   -5.1029    2.2500    0.0000 F   0  0  0  0  0  0  0  0  0  0  0  0
   -5.1029    5.2500    0.0000 F   0  0  0  0  0  0  0  0  0  0  0  0
   -6.6029    3.7500    0.0000 C   0  0  0  0  0  0  0  0  0  0  0  0
   -8.1029    3.7500    0.0000 F   0  0  0  0  0  0  0  0  0  0  0  0
   -6.6029    5.2500    0.0000 F   0  0  0  0  0  0  0  0  0  0  0  0
   -6.6029    2.2500    0.0000 F   0  0  0  0  0  0  0  0  0  0  0  0
  1  2  1  0
  2  3  1  0
  3  4  1  0
  4  5  1  0
  5  6  1  0
  6  7  1  0
  7  8  1  0
  8  9  1  0
  9 10  1  0
  8 11  1  0
 11 12  1  0
  8 13  1  0
 13 14  1  0
  4 15  1  0
 15 16  2  0
 15 17  2  0
 15 18  1  0
 18 19  1  0
 18 20  1  0
 18 21  1  0
 21 22  1  0
 21 23  1  0
 21 24  1  0
 24 25  1  0
 24 26  1  0
 24 27  1  0
 27 28  1  0
 27 29  1  0
 27 30  1  0
 30 31  1  0
 30 32  1  0
 30 33  1  0
 33 34  1  0
 33 35  1  0
 33 36  1  0
 36 37  1  0
 36 38  1  0
 36 39  1  0
 39 40  1  0
 39 41  1  0
 39 42  1  0
M  END
$$$$

     RDKit          2D

 40 42  0  0  0  0  0  0  0  0999 V2000
   -0.7500   -3.8971    0.0000 O   0  0  0  0  0  0  0  0  0  0  0  0
    0.7500   -3.8971    0.0000 C   0  0  0  0  0  0  0  0  0  0  0  0
    1.5000   -2.5981    0.0000 N   0  0  0  0  0  0  0  0  0  0  0  0
    0.7500   -1.2990    0.0000 C   0  0  0  0  0  0  0  0  0  0  0  0
    1.5000    0.0000    0.0000 C   0  0  0  0  0  0  0  0  0  0  0  0
    3.0000    0.0000    0.0000 Br  0  0  0  0  0  0  0  0  0  0  0  0
    0.7500    1.2990    0.0000 C   0  0  0  0  0  0  0  0  0  0  0  0
   -0.7500    1.2990    0.0000 C   0  0  0  0  0  0  0  0  0  0  0  0
   -1.5000    2.5981    0.0000 C   0  0  0  0  0  0  0  0  0  0  0  0
   -2.7990    1.8481    0.0000 F   0  0  0  0  0  0  0  0  0  0  0  0
   -0.2010    3.3481    0.0000 C   0  0  0  0  0  0  0  0  0  0  0  0
    1.0981    4.0981    0.0000 F   0  0  0  0  0  0  0  0  0  0  0  0
   -0.5470    4.1634    0.0000 F   0  0  0  0  0  0  0  0  0  0  0  0
    0.8411    2.2691    0.0000 F   0  0  0  0  0  0  0  0  0  0  0  0
   -2.2500    3.8971    0.0000 C   0  0  0  0  0  0  0  0  0  0  0  0
   -3.5490    3.1471    0.0000 F   0  0  0  0  0  0  0  0  0  0  0  0
   -1.5426    4.4302    0.0000 F   0  0  0  0  0  0  0  0  0  0  0  0
   -3.0000    5.1962    0.0000 C   0  0  0  0  0  0  0  0  0  0  0  0
   -3.7500    6.4952    0.0000 F   0  0  0  0  0  0  0  0  0  0  0  0
   -1.7010    5.9462    0.0000 F   0  0  0  0  0  0  0  0  0  0  0  0
   -4.2990    4.4462    0.0000 F   0  0  0  0  0  0  0  0  0  0  0  0
   -1.5000    0.0000    0.0000 C   0  0  0  0  0  0  0  0  0  0  0  0
   -0.7500   -1.2990    0.0000 C   0  0  0  0  0  0  0  0  0  0  0  0
   -1.5000   -2.5981    0.0000 Br  0  0  0  0  0  0  0  0  0  0  0  0
    1.5000   -5.1962    0.0000 C   0  0  0  0  0  0  0  0  0  0  0  0
    0.7500   -6.4952    0.0000 C   0  0  0  0  0  0  0  0  0  0  0  0
    1.5000   -7.7942    0.0000 C   0  0  0  0  0  0  0  0  0  0  0  0
    3.0000   -7.7942    0.0000 C   0  0  0  0  0  0  0  0  0  0  0  0
    3.7500   -6.4952    0.0000 C   0  0  0  0  0  0  0  0  0  0  0  0
    5.2500   -6.4952    0.0000 N   0  0  0  0  0  0  0  0  0  0  0  0
    6.0000   -7.7942    0.0000 C   0  0  0  0  0  0  0  0  0  0  0  0
    5.2500   -9.0933    0.0000 O   0  0  0  0  0  0  0  0  0  0  0  0
    7.5000   -7.7942    0.0000 C   0  0  0  0  0  0  0  0  0  0  0  0
    8.2500   -9.0933    0.0000 C   0  0  0  0  0  0  0  0  0  0  0  0
    9.7500   -9.0933    0.0000 C   0  0  0  0  0  0  0  0  0  0  0  0
   10.5000   -7.7942    0.0000 C   0  0  0  0  0  0  0  0  0  0  0  0
    9.7500   -6.4952    0.0000 C   0  0  0  0  0  0  0  0  0  0  0  0
    8.2500   -6.4952    0.0000 C   0  0  0  0  0  0  0  0  0  0  0  0
    7.5000   -5.1962    0.0000 F   0  0  0  0  0  0  0  0  0  0  0  0
    3.0000   -5.1962    0.0000 C   0  0  0  0  0  0  0  0  0  0  0  0
  1  2  2  0
  2  3  1  0
  3  4  1  0
  4  5  2  0
  5  6  1  0
  5  7  1  0
  7  8  2  0
  8  9  1  0
  9 10  1  0
  9 11  1  0
 11 12  1  0
 11 13  1  0
 11 14  1  0
  9 15  1  0
 15 16  1  0
 15 17  1  0
 15 18  1  0
 18 19  1  0
 18 20  1  0
 18 21  1  0
  8 22  1  0
 22 23  2  0
 23 24  1  0
  2 25  1  0
 25 26  2  0
 26 27  1  0
 27 28  2  0
 28 29  1  0
 29 30  1  0
 30 31  1  0
 31 32  2  0
 31 33  1  0
 33 34  2  0
 34 35  1  0
 35 36  2  0
 36 37  1  0
 37 38  2  0
 38 39  1  0
 29 40  2  0
 23  4  1  0
 40 25  1  0
 38 33  1  0
M  END
$$$$

     RDKit          2D

 20 21  0  0  0  0  0  0  0  0999 V2000
   -9.4140    0.4635    0.0000 F   0  0  0  0  0  0  0  0  0  0  0  0
   -7.9140    0.4635    0.0000 C   0  0  0  0  0  0  0  0  0  0  0  0
   -7.9140   -1.0365    0.0000 F   0  0  0  0  0  0  0  0  0  0  0  0
   -7.9140    1.9635    0.0000 F   0  0  0  0  0  0  0  0  0  0  0  0
   -6.4140    0.4635    0.0000 C   0  0  0  0  0  0  0  0  0  0  0  0
   -6.4140    1.9635    0.0000 F   0  0  0  0  0  0  0  0  0  0  0  0
   -6.4140   -1.0365    0.0000 F   0  0  0  0  0  0  0  0  0  0  0  0
   -4.9140    0.4635    0.0000 C   0  0  0  0  0  0  0  0  0  0  0  0
   -4.9140   -1.0365    0.0000 F   0  0  0  0  0  0  0  0  0  0  0  0
   -4.9140    1.9635    0.0000 F   0  0  0  0  0  0  0  0  0  0  0  0
   -3.4140    0.4635    0.0000 C   0  0  0  0  0  0  0  0  0  0  0  0
   -3.4140    1.9635    0.0000 F   0  0  0  0  0  0  0  0  0  0  0  0
   -3.4140   -1.0365    0.0000 F   0  0  0  0  0  0  0  0  0  0  0  0
   -1.9140    0.4635    0.0000 C   0  0  0  0  0  0  0  0  0  0  0  0
   -1.0323    1.6771    0.0000 C   0  0  0  0  0  0  0  0  0  0  0  0
    0.3943    1.2135    0.0000 C   0  0  0  0  0  0  0  0  0  0  0  0
    1.2760    0.0000    0.0000 C   0  0  0  0  0  0  0  0  0  0  0  0
    0.3943   -1.2135    0.0000 C   0  0  0  0  0  0  0  0  0  0  0  0
   -1.0323   -0.7500    0.0000 C   0  0  0  0  0  0  0  0  0  0  0  0
   -1.0323    0.7500    0.0000 C   0  0  0  0  0  0  0  0  0  0  0  0
  1  2  1  0
  2  3  1  0
  2  4  1  0
  2  5  1  0
  5  6  1  0
  5  7  1  0
  5  8  1  0
  8  9  1  0
  8 10  1  0
  8 11  1  0
 11 12  1  0
 11 13  1  0
 11 14  1  0
 14 15  1  0
 15 16  1  0
 16 17  1  0
 17 18  1  0
 18 19  1  0
 19 20  1  0
 19 14  1  0
 20 16  1  0
M  END
$$$$

     RDKit          2D

 30 32  0  0  0  0  0  0  0  0999 V2000
    1.1508   11.0205    0.0000 F   0  0  0  0  0  0  0  0  0  0  0  0
    0.8389    9.5533    0.0000 C   0  0  0  0  0  0  0  0  0  0  0  0
    2.3061    9.2415    0.0000 F   0  0  0  0  0  0  0  0  0  0  0  0
   -0.6283    9.8652    0.0000 F   0  0  0  0  0  0  0  0  0  0  0  0
    0.5271    8.0861    0.0000 C   0  0  0  0  0  0  0  0  0  0  0  0
    1.6418    7.0824    0.0000 C   0  0  0  0  0  0  0  0  0  0  0  0
    1.3299    5.6152    0.0000 C   0  0  0  0  0  0  0  0  0  0  0  0
   -0.0967    5.1517    0.0000 C   0  0  0  0  0  0  0  0  0  0  0  0
   -0.4086    3.6844    0.0000 C   0  0  0  0  0  0  0  0  0  0  0  0
    0.7062    2.6807    0.0000 C   0  0  0  0  0  0  0  0  0  0  0  0
    0.3943    1.2135    0.0000 C   0  0  0  0  0  0  0  0  0  0  0  0
    1.2760    0.0000    0.0000 N   0  0  0  0  0  0  0  0  0  0  0  0
    0.3943   -1.2135    0.0000 C   0  0  0  0  0  0  0  0  0  0  0  0
    0.8578   -2.6401    0.0000 C   0  0  0  0  0  0  0  0  0  0  0  0
   -0.5688   -3.1036    0.0000 F   0  0  0  0  0  0  0  0  0  0  0  0
    2.2844   -2.1766    0.0000 F   0  0  0  0  0  0  0  0  0  0  0  0
    1.3213   -4.0667    0.0000 C   0  0  0  0  0  0  0  0  0  0  0  0
    2.7479   -3.6032    0.0000 F   0  0  0  0  0  0  0  0  0  0  0  0
   -0.1052   -4.5302    0.0000 F   0  0  0  0  0  0  0  0  0  0  0  0
    1.7849   -5.4933    0.0000 C   0  0  0  0  0  0  0  0  0  0  0  0
    2.2484   -6.9199    0.0000 F   0  0  0  0  0  0  0  0  0  0  0  0
    0.3583   -5.9568    0.0000 F   0  0  0  0  0  0  0  0  0  0  0  0
    3.2115   -5.0298    0.0000 F   0  0  0  0  0  0  0  0  0  0  0  0
   -1.0323   -0.7500    0.0000 N   0  0  0  0  0  0  0  0  0  0  0  0
   -1.0323    0.7500    0.0000 C   0  0  0  0  0  0  0  0  0  0  0  0
   -2.1470    1.7537    0.0000 C   0  0  0  0  0  0  0  0  0  0  0  0
   -1.8351    3.2209    0.0000 C   0  0  0  0  0  0  0  0  0  0  0  0
   -2.9499    4.2246    0.0000 Cl  0  0  0  0  0  0  0  0  0  0  0  0
   -1.2114    6.1554    0.0000 C   0  0  0  0  0  0  0  0  0  0  0  0
   -0.8995    7.6226    0.0000 C   0  0  0  0  0  0  0  0  0  0  0  0
  1  2  1  0
  2  3  1  0
  2  4  1  0
  2  5  1  0
  5  6  2  0
  6  7  1  0
  7  8  2  0
  8  9  1  0
  9 10  2  0
 10 11  1  0
 11 12  1  0
 12 13  2  0
 13 14  1  0
 14 15  1  0
 14 16  1  0
 14 17  1  0
 17 18  1  0
 17 19  1  0
 17 20  1  0
 20 21  1  0
 20 22  1  0
 20 23  1  0
 13 24  1  0
 24 25  1  0
 25 26  1  0
 26 27  2  0
 27 28  1  0
  8 29  1  0
 29 30  2  0
 30  5  1  0
 27  9  1  0
 25 11  2  0
M  END
$$$$

     RDKit          2D

 35 34  0  0  0  0  0  0  0  0999 V2000
   -1.2990    0.7500    0.0000 F   0  0  0  0  0  0  0  0  0  0  0  0
    0.0000    0.0000    0.0000 C   0  0  0  0  0  0  0  0  0  0  0  0
   -0.0000   -1.5000    0.0000 F   0  0  0  0  0  0  0  0  0  0  0  0
    1.2990    0.7500    0.0000 O   0  0  0  0  0  0  0  0  0  0  0  0
    2.5981   -0.0000    0.0000 C   0  0  0  0  0  0  0  0  0  0  0  0
    1.8481   -1.2990    0.0000 F   0  0  0  0  0  0  0  0  0  0  0  0
    3.3481    1.2990    0.0000 F   0  0  0  0  0  0  0  0  0  0  0  0
    3.8971   -0.7500    0.0000 C   0  0  0  0  0  0  0  0  0  0  0  0
    3.1471   -2.0490    0.0000 F   0  0  0  0  0  0  0  0  0  0  0  0
    4.6471    0.5490    0.0000 F   0  0  0  0  0  0  0  0  0  0  0  0
    5.1962   -1.5000    0.0000 O   0  0  0  0  0  0  0  0  0  0  0  0
    6.4952   -0.7500    0.0000 C   0  0  0  0  0  0  0  0  0  0  0  0
    5.7452    0.5490    0.0000 F   0  0  0  0  0  0  0  0  0  0  0  0
    7.2452   -2.0490    0.0000 F   0  0  0  0  0  0  0  0  0  0  0  0
    7.7942   -0.0000    0.0000 C   0  0  0  0  0  0  0  0  0  0  0  0
    7.0442    1.2990    0.0000 F   0  0  0  0  0  0  0  0  0  0  0  0
    8.5442   -1.2990    0.0000 F   0  0  0  0  0  0  0  0  0  0  0  0
    9.0933    0.7500    0.0000 O   0  0  0  0  0  0  0  0  0  0  0  0
   10.3923   -0.0000    0.0000 C   0  0  0  0  0  0  0  0  0  0  0  0
    9.6423   -1.2990    0.0000 F   0  0  0  0  0  0  0  0  0  0  0  0
   11.1423    1.2990    0.0000 F   0  0  0  0  0  0  0  0  0  0  0  0
   11.6913   -0.7500    0.0000 C   0  0  0  0  0  0  0  0  0  0  0  0
   10.9413   -2.0490    0.0000 F   0  0  0  0  0  0  0  0  0  0  0  0
   12.4413    0.5490    0.0000 F   0  0  0  0  0  0  0  0  0  0  0  0
   12.9904   -1.5000    0.0000 O   0  0  0  0  0  0  0  0  0  0  0  0
   14.2894   -0.7500    0.0000 C   0  0  0  0  0  0  0  0  0  0  0  0
   13.5394    0.5490    0.0000 F   0  0  0  0  0  0  0  0  0  0  0  0
   15.0394   -2.0490    0.0000 F   0  0  0  0  0  0  0  0  0  0  0  0
   15.5885   -0.0000    0.0000 C   0  0  0  0  0  0  0  0  0  0  0  0
   14.8385    1.2990    0.0000 F   0  0  0  0  0  0  0  0  0  0  0  0
   16.3385   -1.2990    0.0000 F   0  0  0  0  0  0  0  0  0  0  0  0
   16.8875    0.7500    0.0000 O   0  0  0  0  0  0  0  0  0  0  0  0
   18.1865   -0.0000    0.0000 C   0  0  0  0  0  0  0  0  0  0  0  0
   19.4856    0.7500    0.0000 F   0  0  0  0  0  0  0  0  0  0  0  0
   18.1865   -1.5000    0.0000 F   0  0  0  0  0  0  0  0  0  0  0  0
  1  2  1  0
  2  3  1  0
  2  4  1  0
  4  5  1  0
  5  6  1  0
  5  7  1  0
  5  8  1  0
  8  9  1  0
  8 10  1  0
  8 11  1  0
 11 12  1  0
 12 13  1  0
 12 14  1  0
 12 15  1  0
 15 16  1  0
 15 17  1  0
 15 18  1  0
 18 19  1  0
 19 20  1  0
 19 21  1  0
 19 22  1  0
 22 23  1  0
 22 24  1  0
 22 25  1  0
 25 26  1  0
 26 27  1  0
 26 28  1  0
 26 29  1  0
 29 30  1  0
 29 31  1  0
 29 32  1  0
 32 33  1  0
 33 34  1  0
 33 35  1  0
M  END
$$$$

     RDKit          2D

 15 14  0  0  0  0  0  0  0  0999 V2000
    3.0000    2.5981    0.0000 F   0  0  0  0  0  0  0  0  0  0  0  0
    2.2500    1.2990    0.0000 C   0  0  0  0  0  0  0  0  0  0  0  0
    0.9510    2.0490    0.0000 F   0  0  0  0  0  0  0  0  0  0  0  0
    2.9838    0.9876    0.0000 F   0  0  0  0  0  0  0  0  0  0  0  0
    1.5000    0.0000    0.0000 O   0  0  0  0  0  0  0  0  0  0  0  0
    2.2500   -1.2990    0.0000 C   0  0  0  0  0  0  0  0  0  0  0  0
    3.0000   -2.5981    0.0000 F   0  0  0  0  0  0  0  0  0  0  0  0
    0.9510   -2.0490    0.0000 C   0  0  0  0  0  0  0  0  0  0  0  0
   -0.3481   -2.7990    0.0000 F   0  0  0  0  0  0  0  0  0  0  0  0
    0.2010   -0.7500    0.0000 F   0  0  0  0  0  0  0  0  0  0  0  0
    1.7010   -3.3481    0.0000 F   0  0  0  0  0  0  0  0  0  0  0  0
    3.5490   -0.5490    0.0000 C   0  0  0  0  0  0  0  0  0  0  0  0
    4.8481    0.2010    0.0000 F   0  0  0  0  0  0  0  0  0  0  0  0
    4.2990   -1.8481    0.0000 F   0  0  0  0  0  0  0  0  0  0  0  0
    3.4244    0.2383    0.0000 F   0  0  0  0  0  0  0  0  0  0  0  0
  1  2  1  0
  2  3  1  0
  2  4  1  0
  2  5  1  0
  5  6  1  0
  6  7  1  0
  6  8  1  0
  8  9  1  0
  8 10  1  0
  8 11  1  0
  6 12  1  0
 12 13  1  0
 12 14  1  0
 12 15  1  0
M  END
$$$$

     RDKit          2D

 34 35  0  0  0  0  0  0  0  0999 V2000
    3.7500   -1.2990    0.0000 F   0  0  0  0  0  0  0  0  0  0  0  0
    2.2500   -1.2990    0.0000 C   0  0  0  0  0  0  0  0  0  0  0  0
    2.7877   -2.6994    0.0000 F   0  0  0  0  0  0  0  0  0  0  0  0
    2.5357   -0.5548    0.0000 F   0  0  0  0  0  0  0  0  0  0  0  0
    0.7500   -1.2990    0.0000 C   0  0  0  0  0  0  0  0  0  0  0  0
    1.5000    0.0000    0.0000 C   0  0  0  0  0  0  0  0  0  0  0  0
    2.5230    1.0971    0.0000 F   0  0  0  0  0  0  0  0  0  0  0  0
    2.2538   -0.2595    0.0000 F   0  0  0  0  0  0  0  0  0  0  0  0
    0.7500    1.2990    0.0000 C   0  0  0  0  0  0  0  0  0  0  0  0
    0.4895    2.7762    0.0000 F   0  0  0  0  0  0  0  0  0  0  0  0
    2.1595    1.8121    0.0000 F   0  0  0  0  0  0  0  0  0  0  0  0
   -0.7500    1.2990    0.0000 C   0  0  0  0  0  0  0  0  0  0  0  0
   -2.1595    1.8121    0.0000 F   0  0  0  0  0  0  0  0  0  0  0  0
   -0.4895    2.7762    0.0000 F   0  0  0  0  0  0  0  0  0  0  0  0
   -1.5000    0.0000    0.0000 C   0  0  0  0  0  0  0  0  0  0  0  0
   -2.9183   -0.4882    0.0000 F   0  0  0  0  0  0  0  0  0  0  0  0
   -2.5230    1.0971    0.0000 F   0  0  0  0  0  0  0  0  0  0  0  0
   -0.7500   -1.2990    0.0000 C   0  0  0  0  0  0  0  0  0  0  0  0
   -2.2500   -1.2990    0.0000 C   0  0  0  0  0  0  0  0  0  0  0  0
   -3.7500   -1.2990    0.0000 F   0  0  0  0  0  0  0  0  0  0  0  0
   -2.7877    0.1013    0.0000 F   0  0  0  0  0  0  0  0  0  0  0  0
   -2.7877   -2.6994    0.0000 F   0  0  0  0  0  0  0  0  0  0  0  0
   -1.5000   -2.5981    0.0000 C   0  0  0  0  0  0  0  0  0  0  0  0
   -2.5230   -3.6951    0.0000 F   0  0  0  0  0  0  0  0  0  0  0  0
   -2.9183   -2.1098    0.0000 F   0  0  0  0  0  0  0  0  0  0  0  0
   -0.7500   -3.8971    0.0000 C   0  0  0  0  0  0  0  0  0  0  0  0
   -0.4895   -5.3743    0.0000 F   0  0  0  0  0  0  0  0  0  0  0  0
   -2.1595   -4.4101    0.0000 F   0  0  0  0  0  0  0  0  0  0  0  0
    0.7500   -3.8971    0.0000 C   0  0  0  0  0  0  0  0  0  0  0  0
    2.1595   -4.4101    0.0000 F   0  0  0  0  0  0  0  0  0  0  0  0
    0.4895   -5.3743    0.0000 F   0  0  0  0  0  0  0  0  0  0  0  0
    1.5000   -2.5981    0.0000 C   0  0  0  0  0  0  0  0  0  0  0  0
    2.9183   -2.1098    0.0000 F   0  0  0  0  0  0  0  0  0  0  0  0
    2.5230   -3.6951    0.0000 F   0  0  0  0  0  0  0  0  0  0  0  0
  1  2  1  0
  2  3  1  0
  2  4  1  0
  2  5  1  0
  5  6  1  0
  6  7  1  0
  6  8  1  0
  6  9  1  0
  9 10  1  0
  9 11  1  0
  9 12  1  0
 12 13  1  0
 12 14  1  0
 12 15  1  0
 15 16  1  0
 15 17  1  0
 15 18  1  0
 18 19  1  0
 19 20  1  0
 19 21  1  0
 19 22  1  0
 18 23  1  0
 23 24  1  0
 23 25  1  0
 23 26  1  0
 26 27  1  0
 26 28  1  0
 26 29  1  0
 29 30  1  0
 29 31  1  0
 29 32  1  0
 32 33  1  0
 32 34  1  0
 18  5  1  0
 32  5  1  0
M  END
$$$$

     RDKit          2D

 36 37  0  0  0  0  0  0  0  0999 V2000
    1.9507    1.5941    0.0000 F   0  0  0  0  0  0  0  0  0  0  0  0
    2.4389    0.1758    0.0000 C   0  0  0  0  0  0  0  0  0  0  0  0
    3.5880    1.1400    0.0000 F   0  0  0  0  0  0  0  0  0  0  0  0
    1.7224   -0.1736    0.0000 F   0  0  0  0  0  0  0  0  0  0  0  0
    3.4031   -0.9733    0.0000 C   0  0  0  0  0  0  0  0  0  0  0  0
    4.4451    0.1057    0.0000 F   0  0  0  0  0  0  0  0  0  0  0  0
    2.1595   -1.8121    0.0000 N   0  0  0  0  0  0  0  0  0  0  0  0
    0.7500   -1.2990    0.0000 C   0  0  0  0  0  0  0  0  0  0  0  0
    0.4895   -2.7762    0.0000 F   0  0  0  0  0  0  0  0  0  0  0  0
    1.5000    0.0000    0.0000 C   0  0  0  0  0  0  0  0  0  0  0  0
    2.6491    0.9642    0.0000 F   0  0  0  0  0  0  0  0  0  0  0  0
    2.8482   -0.6575    0.0000 F   0  0  0  0  0  0  0  0  0  0  0  0
    0.7500    1.2990    0.0000 C   0  0  0  0  0  0  0  0  0  0  0  0
    0.4895    2.7762    0.0000 F   0  0  0  0  0  0  0  0  0  0  0  0
    2.0865    1.9801    0.0000 F   0  0  0  0  0  0  0  0  0  0  0  0
   -0.7500    1.2990    0.0000 C   0  0  0  0  0  0  0  0  0  0  0  0
   -0.4895    2.7762    0.0000 F   0  0  0  0  0  0  0  0  0  0  0  0
   -2.1595    1.8121    0.0000 C   0  0  0  0  0  0  0  0  0  0  0  0
   -3.5691    2.3251    0.0000 F   0  0  0  0  0  0  0  0  0  0  0  0
   -1.6465    3.2216    0.0000 F   0  0  0  0  0  0  0  0  0  0  0  0
   -2.8406    0.4756    0.0000 F   0  0  0  0  0  0  0  0  0  0  0  0
   -1.5000    0.0000    0.0000 C   0  0  0  0  0  0  0  0  0  0  0  0
   -2.6491   -0.9642    0.0000 F   0  0  0  0  0  0  0  0  0  0  0  0
   -2.7580    0.8169    0.0000 F   0  0  0  0  0  0  0  0  0  0  0  0
   -0.7500   -1.2990    0.0000 C   0  0  0  0  0  0  0  0  0  0  0  0
   -0.4895   -2.7762    0.0000 F   0  0  0  0  0  0  0  0  0  0  0  0
   -2.1595   -1.8121    0.0000 F   0  0  0  0  0  0  0  0  0  0  0  0
    2.5730   -3.2540    0.0000 C   0  0  0  0  0  0  0  0  0  0  0  0
    2.6776   -4.7503    0.0000 F   0  0  0  0  0  0  0  0  0  0  0  0
    1.0958   -3.5144    0.0000 F   0  0  0  0  0  0  0  0  0  0  0  0
    4.0721   -3.3063    0.0000 C   0  0  0  0  0  0  0  0  0  0  0  0
    5.5275   -3.6692    0.0000 F   0  0  0  0  0  0  0  0  0  0  0  0
    3.8633   -4.7917    0.0000 F   0  0  0  0  0  0  0  0  0  0  0  0
    4.5851   -1.8968    0.0000 C   0  0  0  0  0  0  0  0  0  0  0  0
    5.3800   -0.6247    0.0000 F   0  0  0  0  0  0  0  0  0  0  0  0
    5.9333   -2.5543    0.0000 F   0  0  0  0  0  0  0  0  0  0  0  0
  1  2  1  0
  2  3  1  0
  2  4  1  0
  2  5  1  0
  5  6  1  0
  5  7  1  0
  7  8  1  0
  8  9  1  0
  8 10  1  0
 10 11  1  0
 10 12  1  0
 10 13  1  0
 13 14  1  0
 13 15  1  0
 13 16  1  0
 16 17  1  0
 16 18  1  0
 18 19  1  0
 18 20  1  0
 18 21  1  0
 16 22  1  0
 22 23  1  0
 22 24  1  0
 22 25  1  0
 25 26  1  0
 25 27  1  0
  7 28  1  0
 28 29  1  0
 28 30  1  0
 28 31  1  0
 31 32  1  0
 31 33  1  0
 31 34  1  0
 34 35  1  0
 34 36  1  0
 34  5  1  0
 25  8  1  0
M  END
$$$$

     RDKit          2D

 22 23  0  0  0  0  0  0  0  0999 V2000
   -2.9499    4.2246    0.0000 F   0  0  0  0  0  0  0  0  0  0  0  0
   -1.8351    3.2209    0.0000 C   0  0  0  0  0  0  0  0  0  0  0  0
   -2.1470    1.7537    0.0000 C   0  0  0  0  0  0  0  0  0  0  0  0
   -3.5736    1.2902    0.0000 F   0  0  0  0  0  0  0  0  0  0  0  0
   -1.0323    0.7500    0.0000 C   0  0  0  0  0  0  0  0  0  0  0  0
    0.3943    1.2135    0.0000 C   0  0  0  0  0  0  0  0  0  0  0  0
    0.7062    2.6807    0.0000 C   0  0  0  0  0  0  0  0  0  0  0  0
    2.1328    3.1443    0.0000 F   0  0  0  0  0  0  0  0  0  0  0  0
   -0.4086    3.6844    0.0000 C   0  0  0  0  0  0  0  0  0  0  0  0
   -0.0967    5.1517    0.0000 C   0  0  0  0  0  0  0  0  0  0  0  0
    0.2152    6.6189    0.0000 F   0  0  0  0  0  0  0  0  0  0  0  0
    1.3705    4.8398    0.0000 F   0  0  0  0  0  0  0  0  0  0  0  0
   -1.5639    5.4635    0.0000 F   0  0  0  0  0  0  0  0  0  0  0  0
    1.2760    0.0000    0.0000 C   0  0  0  0  0  0  0  0  0  0  0  0
    2.3907    1.0037    0.0000 F   0  0  0  0  0  0  0  0  0  0  0  0
    2.3907   -1.0037    0.0000 F   0  0  0  0  0  0  0  0  0  0  0  0
    0.3943   -1.2135    0.0000 C   0  0  0  0  0  0  0  0  0  0  0  0
    1.6933   -1.9635    0.0000 F   0  0  0  0  0  0  0  0  0  0  0  0
   -0.2158   -2.5838    0.0000 F   0  0  0  0  0  0  0  0  0  0  0  0
   -1.0323   -0.7500    0.0000 C   0  0  0  0  0  0  0  0  0  0  0  0
   -1.3442   -2.2172    0.0000 F   0  0  0  0  0  0  0  0  0  0  0  0
   -2.5241   -0.5932    0.0000 F   0  0  0  0  0  0  0  0  0  0  0  0
  1  2  1  0
  2  3  2  0
  3  4  1  0
  3  5  1  0
  5  6  2  0
  6  7  1  0
  7  8  1  0
  7  9  2  0
  9 10  1  0
 10 11  1  0
 10 12  1  0
 10 13  1  0
  6 14  1  0
 14 15  1  0
 14 16  1  0
 14 17  1  0
 17 18  1  0
 17 19  1  0
 17 20  1  0
 20 21  1  0
 20 22  1  0
  9  2  1  0
 20  5  1  0
M  END
$$$$

     RDKit          2D

 14 13  0  0  0  0  0  0  0  0999 V2000
   -1.8481   -1.2990    0.0000 O   0  0  0  0  0  0  0  0  0  0  0  0
   -2.5981    0.0000    0.0000 S   0  0  0  0  0  0  0  0  0  0  0  0
   -3.3481    1.2990    0.0000 O   0  0  0  0  0  0  0  0  0  0  0  0
   -3.8971   -0.7500    0.0000 O   0  0  0  0  0  0  0  0  0  0  0  0
   -1.2990    0.7500    0.0000 O   0  0  0  0  0  0  0  0  0  0  0  0
    0.0000    0.0000    0.0000 C   0  0  0  0  0  0  0  0  0  0  0  0
    1.2990    0.7500    0.0000 C   0  0  0  0  0  0  0  0  0  0  0  0
    2.5981   -0.0000    0.0000 C   0  0  0  0  0  0  0  0  0  0  0  0
    3.3481    1.2990    0.0000 F   0  0  0  0  0  0  0  0  0  0  0  0
    1.8481   -1.2990    0.0000 F   0  0  0  0  0  0  0  0  0  0  0  0
    3.8971   -0.7500    0.0000 C   0  0  0  0  0  0  0  0  0  0  0  0
    5.1962   -1.5000    0.0000 F   0  0  0  0  0  0  0  0  0  0  0  0
    3.1471   -2.0490    0.0000 F   0  0  0  0  0  0  0  0  0  0  0  0
    4.6471    0.5490    0.0000 F   0  0  0  0  0  0  0  0  0  0  0  0
  1  2  2  0
  2  3  2  0
  2  4  1  0
  2  5  1  0
  5  6  1  0
  6  7  1  0
  7  8  1  0
  8  9  1  0
  8 10  1  0
  8 11  1  0
 11 12  1  0
 11 13  1  0
 11 14  1  0
M  END
$$$$

     RDKit          2D

 34 33  0  0  0  0  0  0  0  0999 V2000
    0.0000    0.0000    0.0000 C   0  0  0  0  0  0  0  0  0  0  0  0
    1.2990    0.7500    0.0000 N   0  0  0  0  0  0  0  0  0  0  0  0
    2.5981   -0.0000    0.0000 C   0  0  0  0  0  0  0  0  0  0  0  0
    3.8971    0.7500    0.0000 C   0  0  0  0  0  0  0  0  0  0  0  0
    5.1962   -0.0000    0.0000 C   0  0  0  0  0  0  0  0  0  0  0  0
    6.4952    0.7500    0.0000 N   0  0  0  0  0  0  0  0  0  0  0  0
    7.7942   -0.0000    0.0000 S   0  0  0  0  0  0  0  0  0  0  0  0
    7.0442   -1.2990    0.0000 O   0  0  0  0  0  0  0  0  0  0  0  0
    8.5442    1.2990    0.0000 O   0  0  0  0  0  0  0  0  0  0  0  0
    9.0933   -0.7500    0.0000 C   0  0  0  0  0  0  0  0  0  0  0  0
    9.0933   -2.2500    0.0000 C   0  0  0  0  0  0  0  0  0  0  0  0
   10.3923   -3.0000    0.0000 C   0  0  0  0  0  0  0  0  0  0  0  0
    9.6423   -4.2990    0.0000 F   0  0  0  0  0  0  0  0  0  0  0  0
   11.1423   -1.7010    0.0000 F   0  0  0  0  0  0  0  0  0  0  0  0
   11.6913   -3.7500    0.0000 C   0  0  0  0  0  0  0  0  0  0  0  0
   12.4413   -2.4510    0.0000 F   0  0  0  0  0  0  0  0  0  0  0  0
   10.9413   -5.0490    0.0000 F   0  0  0  0  0  0  0  0  0  0  0  0
   12.9904   -4.5000    0.0000 C   0  0  0  0  0  0  0  0  0  0  0  0
   12.2404   -5.7990    0.0000 F   0  0  0  0  0  0  0  0  0  0  0  0
   13.7404   -3.2010    0.0000 F   0  0  0  0  0  0  0  0  0  0  0  0
   14.2894   -5.2500    0.0000 C   0  0  0  0  0  0  0  0  0  0  0  0
   15.0394   -3.9510    0.0000 F   0  0  0  0  0  0  0  0  0  0  0  0
   13.5394   -6.5490    0.0000 F   0  0  0  0  0  0  0  0  0  0  0  0
   15.5885   -6.0000    0.0000 C   0  0  0  0  0  0  0  0  0  0  0  0
   14.8385   -7.2990    0.0000 F   0  0  0  0  0  0  0  0  0  0  0  0
   16.3385   -4.7010    0.0000 F   0  0  0  0  0  0  0  0  0  0  0  0
   16.8875   -6.7500    0.0000 C   0  0  0  0  0  0  0  0  0  0  0  0
   18.1865   -7.5000    0.0000 F   0  0  0  0  0  0  0  0  0  0  0  0
   17.6375   -5.4510    0.0000 F   0  0  0  0  0  0  0  0  0  0  0  0
   16.1375   -8.0490    0.0000 F   0  0  0  0  0  0  0  0  0  0  0  0
    1.2990    2.2500    0.0000 C   0  0  0  0  0  0  0  0  0  0  0  0
    2.5981    3.0000    0.0000 C   0  0  0  0  0  0  0  0  0  0  0  0
    3.8971    2.2500    0.0000 O   0  0  0  0  0  0  0  0  0  0  0  0
    2.5981    4.5000    0.0000 O   0  0  0  0  0  0  0  0  0  0  0  0
  1  2  1  0
  2  3  1  0
  3  4  1  0
  4  5  1  0
  5  6  1  0
  6  7  1  0
  7  8  2  0
  7  9  2  0
  7 10  1  0
 10 11  1  0
 11 12  1  0
 12 13  1  0
 12 14  1  0
 12 15  1  0
 15 16  1  0
 15 17  1  0
 15 18  1  0
 18 19  1  0
 18 20  1  0
 18 21  1  0
 21 22  1  0
 21 23  1  0
 21 24  1  0
 24 25  1  0
 24 26  1  0
 24 27  1  0
 27 28  1  0
 27 29  1  0
 27 30  1  0
  2 31  1  0
 31 32  1  0
 32 33  2  0
 32 34  1  0
M  END
$$$$

     RDKit          2D

 18 17  0  0  0  0  0  0  0  0999 V2000
    0.0000    0.0000    0.0000 C   0  0  0  0  0  0  0  0  0  0  0  0
    1.2990    0.7500    0.0000 N   0  0  0  0  0  0  0  0  0  0  0  0
    2.5981   -0.0000    0.0000 C   0  0  0  0  0  0  0  0  0  0  0  0
    3.8971    0.7500    0.0000 C   0  0  0  0  0  0  0  0  0  0  0  0
    5.1962   -0.0000    0.0000 C   0  0  0  0  0  0  0  0  0  0  0  0
    6.4952    0.7500    0.0000 N   0  0  0  0  0  0  0  0  0  0  0  0
    7.7942   -0.0000    0.0000 S   0  0  0  0  0  0  0  0  0  0  0  0
    7.0442   -1.2990    0.0000 O   0  0  0  0  0  0  0  0  0  0  0  0
    8.5442    1.2990    0.0000 O   0  0  0  0  0  0  0  0  0  0  0  0
    9.0933   -0.7500    0.0000 C   0  0  0  0  0  0  0  0  0  0  0  0
    9.0933   -2.2500    0.0000 C   0  0  0  0  0  0  0  0  0  0  0  0
   10.3923   -3.0000    0.0000 C   0  0  0  0  0  0  0  0  0  0  0  0
    9.6423   -4.2990    0.0000 F   0  0  0  0  0  0  0  0  0  0  0  0
   11.1423   -1.7010    0.0000 F   0  0  0  0  0  0  0  0  0  0  0  0
   11.6913   -3.7500    0.0000 C   0  0  0  0  0  0  0  0  0  0  0  0
   12.9904   -4.5000    0.0000 F   0  0  0  0  0  0  0  0  0  0  0  0
   12.4413   -2.4510    0.0000 F   0  0  0  0  0  0  0  0  0  0  0  0
   10.9413   -5.0490    0.0000 F   0  0  0  0  0  0  0  0  0  0  0  0
  1  2  1  0
  2  3  1  0
  3  4  1  0
  4  5  1  0
  5  6  1  0
  6  7  1  0
  7  8  2  0
  7  9  2  0
  7 10  1  0
 10 11  1  0
 11 12  1  0
 12 13  1  0
 12 14  1  0
 12 15  1  0
 15 16  1  0
 15 17  1  0
 15 18  1  0
M  END
$$$$

     RDKit          2D

 59 58  0  0  0  0  0  0  0  0999 V2000
    0.0000    0.0000    0.0000 C   0  0  0  0  0  0  0  0  0  0  0  0
    1.2990    0.7500    0.0000 C   0  0  0  0  0  0  0  0  0  0  0  0
    2.5981   -0.0000    0.0000 C   0  0  0  0  0  0  0  0  0  0  0  0
    1.2990    2.2500    0.0000 O   0  0  0  0  0  0  0  0  0  0  0  0
    2.5981    3.0000    0.0000 C   0  0  0  0  0  0  0  0  0  0  0  0
    3.8971    2.2500    0.0000 O   0  0  0  0  0  0  0  0  0  0  0  0
    2.5981    4.5000    0.0000 C   0  0  0  0  0  0  0  0  0  0  0  0
    3.8971    5.2500    0.0000 N   0  0  0  0  0  0  0  0  0  0  0  0
    3.1471    6.5490    0.0000 C   0  0  0  0  0  0  0  0  0  0  0  0
    4.6471    3.9510    0.0000 C   0  0  0  0  0  0  0  0  0  0  0  0
    5.1962    6.0000    0.0000 C   0  0  0  0  0  0  0  0  0  0  0  0
    6.4952    5.2500    0.0000 C   0  0  0  0  0  0  0  0  0  0  0  0
    7.7942    6.0000    0.0000 C   0  0  0  0  0  0  0  0  0  0  0  0
    9.0933    5.2500    0.0000 N   0  0  0  0  0  0  0  0  0  0  0  0
   10.3923    6.0000    0.0000 C   0  0  0  0  0  0  0  0  0  0  0  0
   10.3923    7.5000    0.0000 O   0  0  0  0  0  0  0  0  0  0  0  0
   11.6913    5.2500    0.0000 C   0  0  0  0  0  0  0  0  0  0  0  0
   12.4413    6.5490    0.0000 F   0  0  0  0  0  0  0  0  0  0  0  0
   10.9413    3.9510    0.0000 F   0  0  0  0  0  0  0  0  0  0  0  0
   12.9904    4.5000    0.0000 C   0  0  0  0  0  0  0  0  0  0  0  0
   12.2404    3.2010    0.0000 F   0  0  0  0  0  0  0  0  0  0  0  0
   13.7404    5.7990    0.0000 F   0  0  0  0  0  0  0  0  0  0  0  0
   14.2894    3.7500    0.0000 C   0  0  0  0  0  0  0  0  0  0  0  0
   15.0394    5.0490    0.0000 F   0  0  0  0  0  0  0  0  0  0  0  0
   13.5394    2.4510    0.0000 F   0  0  0  0  0  0  0  0  0  0  0  0
   15.5885    3.0000    0.0000 C   0  0  0  0  0  0  0  0  0  0  0  0
   14.8385    1.7010    0.0000 F   0  0  0  0  0  0  0  0  0  0  0  0
   16.3385    4.2990    0.0000 F   0  0  0  0  0  0  0  0  0  0  0  0
   16.8875    2.2500    0.0000 C   0  0  0  0  0  0  0  0  0  0  0  0
   17.6375    3.5490    0.0000 F   0  0  0  0  0  0  0  0  0  0  0  0
   16.1375    0.9510    0.0000 F   0  0  0  0  0  0  0  0  0  0  0  0
   18.1865    1.5000    0.0000 C   0  0  0  0  0  0  0  0  0  0  0  0
   17.4365    0.2010    0.0000 F   0  0  0  0  0  0  0  0  0  0  0  0
   18.9365    2.7990    0.0000 F   0  0  0  0  0  0  0  0  0  0  0  0
   19.4856    0.7500    0.0000 C   0  0  0  0  0  0  0  0  0  0  0  0
   20.2356    2.0490    0.0000 F   0  0  0  0  0  0  0  0  0  0  0  0
   18.7356   -0.5490    0.0000 F   0  0  0  0  0  0  0  0  0  0  0  0
   20.7846    0.0000    0.0000 C   0  0  0  0  0  0  0  0  0  0  0  0
   20.0346   -1.2990    0.0000 F   0  0  0  0  0  0  0  0  0  0  0  0
   21.5346    1.2990    0.0000 F   0  0  0  0  0  0  0  0  0  0  0  0
   22.0836   -0.7500    0.0000 C   0  0  0  0  0  0  0  0  0  0  0  0
   22.8336    0.5490    0.0000 F   0  0  0  0  0  0  0  0  0  0  0  0
   21.3336   -2.0490    0.0000 F   0  0  0  0  0  0  0  0  0  0  0  0
   23.3827   -1.5000    0.0000 C   0  0  0  0  0  0  0  0  0  0  0  0
   22.6327   -2.7990    0.0000 F   0  0  0  0  0  0  0  0  0  0  0  0
   24.1327   -0.2010    0.0000 F   0  0  0  0  0  0  0  0  0  0  0  0
   24.6817   -2.2500    0.0000 C   0  0  0  0  0  0  0  0  0  0  0  0
   25.4317   -0.9510    0.0000 F   0  0  0  0  0  0  0  0  0  0  0  0
   23.9317   -3.5490    0.0000 F   0  0  0  0  0  0  0  0  0  0  0  0
   25.9808   -3.0000    0.0000 C   0  0  0  0  0  0  0  0  0  0  0  0
   25.2308   -4.2990    0.0000 F   0  0  0  0  0  0  0  0  0  0  0  0
   26.7308   -1.7010    0.0000 F   0  0  0  0  0  0  0  0  0  0  0  0
   27.2798   -3.7500    0.0000 C   0  0  0  0  0  0  0  0  0  0  0  0
   28.0298   -2.4510    0.0000 F   0  0  0  0  0  0  0  0  0  0  0  0
   26.5298   -5.0490    0.0000 F   0  0  0  0  0  0  0  0  0  0  0  0
   28.5788   -4.5000    0.0000 C   0  0  0  0  0  0  0  0  0  0  0  0
   29.8779   -5.2500    0.0000 F   0  0  0  0  0  0  0  0  0  0  0  0
   27.8288   -5.7990    0.0000 F   0  0  0  0  0  0  0  0  0  0  0  0
   29.3288   -3.2010    0.0000 F   0  0  0  0  0  0  0  0  0  0  0  0
  1  2  1  0
  2  3  1  0
  2  4  1  0
  4  5  1  0
  5  6  2  0
  5  7  1  0
  7  8  1  0
  8  9  1  0
  8 10  1  0
  8 11  1  0
 11 12  1  0
 12 13  1  0
 13 14  1  0
 14 15  1  0
 15 16  2  0
 15 17  1  0
 17 18  1  0
 17 19  1  0
 17 20  1  0
 20 21  1  0
 20 22  1  0
 20 23  1  0
 23 24  1  0
 23 25  1  0
 23 26  1  0
 26 27  1  0
 26 28  1  0
 26 29  1  0
 29 30  1  0
 29 31  1  0
 29 32  1  0
 32 33  1  0
 32 34  1  0
 32 35  1  0
 35 36  1  0
 35 37  1  0
 35 38  1  0
 38 39  1  0
 38 40  1  0
 38 41  1  0
 41 42  1  0
 41 43  1  0
 41 44  1  0
 44 45  1  0
 44 46  1  0
 44 47  1  0
 47 48  1  0
 47 49  1  0
 47 50  1  0
 50 51  1  0
 50 52  1  0
 50 53  1  0
 53 54  1  0
 53 55  1  0
 53 56  1  0
 56 57  1  0
 56 58  1  0
 56 59  1  0
M  CHG  1   8   1
M  END
$$$$

     RDKit          2D

 50 49  0  0  0  0  0  0  0  0999 V2000
    0.0000    0.0000    0.0000 C   0  0  0  0  0  0  0  0  0  0  0  0
    1.2990    0.7500    0.0000 C   0  0  0  0  0  0  0  0  0  0  0  0
    2.5981   -0.0000    0.0000 C   0  0  0  0  0  0  0  0  0  0  0  0
    1.2990    2.2500    0.0000 O   0  0  0  0  0  0  0  0  0  0  0  0
    2.5981    3.0000    0.0000 C   0  0  0  0  0  0  0  0  0  0  0  0
    3.8971    2.2500    0.0000 O   0  0  0  0  0  0  0  0  0  0  0  0
    2.5981    4.5000    0.0000 C   0  0  0  0  0  0  0  0  0  0  0  0
    3.8971    5.2500    0.0000 N   0  0  0  0  0  0  0  0  0  0  0  0
    3.1471    6.5490    0.0000 C   0  0  0  0  0  0  0  0  0  0  0  0
    4.6471    3.9510    0.0000 C   0  0  0  0  0  0  0  0  0  0  0  0
    5.1962    6.0000    0.0000 C   0  0  0  0  0  0  0  0  0  0  0  0
    6.4952    5.2500    0.0000 C   0  0  0  0  0  0  0  0  0  0  0  0
    7.7942    6.0000    0.0000 C   0  0  0  0  0  0  0  0  0  0  0  0
    9.0933    5.2500    0.0000 N   0  0  0  0  0  0  0  0  0  0  0  0
   10.3923    6.0000    0.0000 C   0  0  0  0  0  0  0  0  0  0  0  0
   10.3923    7.5000    0.0000 O   0  0  0  0  0  0  0  0  0  0  0  0
   11.6913    5.2500    0.0000 C   0  0  0  0  0  0  0  0  0  0  0  0
   12.4413    6.5490    0.0000 F   0  0  0  0  0  0  0  0  0  0  0  0
   10.9413    3.9510    0.0000 F   0  0  0  0  0  0  0  0  0  0  0  0
   12.9904    4.5000    0.0000 C   0  0  0  0  0  0  0  0  0  0  0  0
   12.2404    3.2010    0.0000 F   0  0  0  0  0  0  0  0  0  0  0  0
   13.7404    5.7990    0.0000 F   0  0  0  0  0  0  0  0  0  0  0  0
   14.2894    3.7500    0.0000 C   0  0  0  0  0  0  0  0  0  0  0  0
   15.0394    5.0490    0.0000 F   0  0  0  0  0  0  0  0  0  0  0  0
   13.5394    2.4510    0.0000 F   0  0  0  0  0  0  0  0  0  0  0  0
   15.5885    3.0000    0.0000 C   0  0  0  0  0  0  0  0  0  0  0  0
   14.8385    1.7010    0.0000 F   0  0  0  0  0  0  0  0  0  0  0  0
   16.3385    4.2990    0.0000 F   0  0  0  0  0  0  0  0  0  0  0  0
   16.8875    2.2500    0.0000 C   0  0  0  0  0  0  0  0  0  0  0  0
   17.6375    3.5490    0.0000 F   0  0  0  0  0  0  0  0  0  0  0  0
   16.1375    0.9510    0.0000 F   0  0  0  0  0  0  0  0  0  0  0  0
   18.1865    1.5000    0.0000 C   0  0  0  0  0  0  0  0  0  0  0  0
   17.4365    0.2010    0.0000 F   0  0  0  0  0  0  0  0  0  0  0  0
   18.9365    2.7990    0.0000 F   0  0  0  0  0  0  0  0  0  0  0  0
   19.4856    0.7500    0.0000 C   0  0  0  0  0  0  0  0  0  0  0  0
   20.2356    2.0490    0.0000 F   0  0  0  0  0  0  0  0  0  0  0  0
   18.7356   -0.5490    0.0000 F   0  0  0  0  0  0  0  0  0  0  0  0
   20.7846    0.0000    0.0000 C   0  0  0  0  0  0  0  0  0  0  0  0
   20.0346   -1.2990    0.0000 F   0  0  0  0  0  0  0  0  0  0  0  0
   21.5346    1.2990    0.0000 F   0  0  0  0  0  0  0  0  0  0  0  0
   22.0836   -0.7500    0.0000 C   0  0  0  0  0  0  0  0  0  0  0  0
   22.8336    0.5490    0.0000 F   0  0  0  0  0  0  0  0  0  0  0  0
   21.3336   -2.0490    0.0000 F   0  0  0  0  0  0  0  0  0  0  0  0
   23.3827   -1.5000    0.0000 C   0  0  0  0  0  0  0  0  0  0  0  0
   22.6327   -2.7990    0.0000 F   0  0  0  0  0  0  0  0  0  0  0  0
   24.1327   -0.2010    0.0000 F   0  0  0  0  0  0  0  0  0  0  0  0
   24.6817   -2.2500    0.0000 C   0  0  0  0  0  0  0  0  0  0  0  0
   25.9808   -3.0000    0.0000 F   0  0  0  0  0  0  0  0  0  0  0  0
   25.4317   -0.9510    0.0000 F   0  0  0  0  0  0  0  0  0  0  0  0
   23.9317   -3.5490    0.0000 F   0  0  0  0  0  0  0  0  0  0  0  0
  1  2  1  0
  2  3  1  0
  2  4  1  0
  4  5  1  0
  5  6  2  0
  5  7  1  0
  7  8  1  0
  8  9  1  0
  8 10  1  0
  8 11  1  0
 11 12  1  0
 12 13  1  0
 13 14  1  0
 14 15  1  0
 15 16  2  0
 15 17  1  0
 17 18  1  0
 17 19  1  0
 17 20  1  0
 20 21  1  0
 20 22  1  0
 20 23  1  0
 23 24  1  0
 23 25  1  0
 23 26  1  0
 26 27  1  0
 26 28  1  0
 26 29  1  0
 29 30  1  0
 29 31  1  0
 29 32  1  0
 32 33  1  0
 32 34  1  0
 32 35  1  0
 35 36  1  0
 35 37  1  0
 35 38  1  0
 38 39  1  0
 38 40  1  0
 38 41  1  0
 41 42  1  0
 41 43  1  0
 41 44  1  0
 44 45  1  0
 44 46  1  0
 44 47  1  0
 47 48  1  0
 47 49  1  0
 47 50  1  0
M  CHG  1   8   1
M  END
$$$$

     RDKit          2D

 42 41  0  0  0  0  0  0  0  0999 V2000
    1.2990    2.2500    0.0000 C   0  0  0  0  0  0  0  0  0  0  0  0
    1.2990    0.7500    0.0000 N   0  0  0  0  0  0  0  0  0  0  0  0
    2.5981   -0.0000    0.0000 S   0  0  0  0  0  0  0  0  0  0  0  0
    3.3481    1.2990    0.0000 O   0  0  0  0  0  0  0  0  0  0  0  0
    2.1183   -0.6366    0.0000 O   0  0  0  0  0  0  0  0  0  0  0  0
    3.8971   -0.7500    0.0000 C   0  0  0  0  0  0  0  0  0  0  0  0
    4.6471    0.5490    0.0000 F   0  0  0  0  0  0  0  0  0  0  0  0
    5.1962   -1.5000    0.0000 F   0  0  0  0  0  0  0  0  0  0  0  0
    3.1471   -2.0490    0.0000 C   0  0  0  0  0  0  0  0  0  0  0  0
    2.3318   -1.7030    0.0000 F   0  0  0  0  0  0  0  0  0  0  0  0
    4.4462   -2.7990    0.0000 F   0  0  0  0  0  0  0  0  0  0  0  0
    2.3971   -3.3481    0.0000 C   0  0  0  0  0  0  0  0  0  0  0  0
    3.6962   -4.0981    0.0000 F   0  0  0  0  0  0  0  0  0  0  0  0
    1.0981   -2.5981    0.0000 F   0  0  0  0  0  0  0  0  0  0  0  0
    1.6471   -4.6471    0.0000 C   0  0  0  0  0  0  0  0  0  0  0  0
    0.3481   -3.8971    0.0000 F   0  0  0  0  0  0  0  0  0  0  0  0
    2.9462   -5.3971    0.0000 F   0  0  0  0  0  0  0  0  0  0  0  0
    0.8971   -5.9462    0.0000 C   0  0  0  0  0  0  0  0  0  0  0  0
    2.1962   -6.6962    0.0000 F   0  0  0  0  0  0  0  0  0  0  0  0
   -0.4019   -5.1962    0.0000 F   0  0  0  0  0  0  0  0  0  0  0  0
    0.1471   -7.2452    0.0000 C   0  0  0  0  0  0  0  0  0  0  0  0
   -1.1519   -6.4952    0.0000 F   0  0  0  0  0  0  0  0  0  0  0  0
    1.4462   -7.9952    0.0000 F   0  0  0  0  0  0  0  0  0  0  0  0
   -0.6029   -8.5442    0.0000 C   0  0  0  0  0  0  0  0  0  0  0  0
   -1.9019   -7.7942    0.0000 F   0  0  0  0  0  0  0  0  0  0  0  0
    0.6962   -9.2942    0.0000 F   0  0  0  0  0  0  0  0  0  0  0  0
   -1.3529   -9.8433    0.0000 C   0  0  0  0  0  0  0  0  0  0  0  0
   -0.0538  -10.5933    0.0000 F   0  0  0  0  0  0  0  0  0  0  0  0
   -2.6519   -9.0933    0.0000 F   0  0  0  0  0  0  0  0  0  0  0  0
   -2.1029  -11.1423    0.0000 C   0  0  0  0  0  0  0  0  0  0  0  0
   -3.4019  -10.3923    0.0000 F   0  0  0  0  0  0  0  0  0  0  0  0
   -0.8038  -11.8923    0.0000 F   0  0  0  0  0  0  0  0  0  0  0  0
   -2.8529  -12.4413    0.0000 C   0  0  0  0  0  0  0  0  0  0  0  0
   -1.5538  -13.1913    0.0000 F   0  0  0  0  0  0  0  0  0  0  0  0
   -4.1519  -11.6913    0.0000 F   0  0  0  0  0  0  0  0  0  0  0  0
   -3.6029  -13.7404    0.0000 C   0  0  0  0  0  0  0  0  0  0  0  0
   -4.9019  -12.9904    0.0000 F   0  0  0  0  0  0  0  0  0  0  0  0
   -2.3038  -14.4904    0.0000 F   0  0  0  0  0  0  0  0  0  0  0  0
   -4.3529  -15.0394    0.0000 C   0  0  0  0  0  0  0  0  0  0  0  0
   -5.1029  -16.3385    0.0000 F   0  0  0  0  0  0  0  0  0  0  0  0
   -3.0538  -15.7894    0.0000 F   0  0  0  0  0  0  0  0  0  0  0  0
   -5.6519  -14.2894    0.0000 F   0  0  0  0  0  0  0  0  0  0  0  0
  1  2  1  0
  2  3  1  0
  3  4  2  0
  3  5  2  0
  3  6  1  0
  6  7  1  0
  6  8  1  0
  6  9  1  0
  9 10  1  0
  9 11  1  0
  9 12  1  0
 12 13  1  0
 12 14  1  0
 12 15  1  0
 15 16  1  0
 15 17  1  0
 15 18  1  0
 18 19  1  0
 18 20  1  0
 18 21  1  0
 21 22  1  0
 21 23  1  0
 21 24  1  0
 24 25  1  0
 24 26  1  0
 24 27  1  0
 27 28  1  0
 27 29  1  0
 27 30  1  0
 30 31  1  0
 30 32  1  0
 30 33  1  0
 33 34  1  0
 33 35  1  0
 33 36  1  0
 36 37  1  0
 36 38  1  0
 36 39  1  0
 39 40  1  0
 39 41  1  0
 39 42  1  0
M  END
$$$$

     RDKit          2D

 52 51  0  0  0  0  0  0  0  0999 V2000
    6.4952   11.2500    0.0000 C   0  0  0  0  0  0  0  0  0  0  0  0
    6.4952    9.7500    0.0000 N   0  0  0  0  0  0  0  0  0  0  0  0
    7.7942    9.0000    0.0000 C   0  0  0  0  0  0  0  0  0  0  0  0
    5.1962    9.0000    0.0000 C   0  0  0  0  0  0  0  0  0  0  0  0
    5.1962    7.5000    0.0000 C   0  0  0  0  0  0  0  0  0  0  0  0
    3.8971    6.7500    0.0000 C   0  0  0  0  0  0  0  0  0  0  0  0
    3.8971    5.2500    0.0000 N   0  0  0  0  0  0  0  0  0  0  0  0
    2.5981    4.5000    0.0000 C   0  0  0  0  0  0  0  0  0  0  0  0
    2.5981    3.0000    0.0000 C   0  0  0  0  0  0  0  0  0  0  0  0
    1.2990    2.2500    0.0000 C   0  0  0  0  0  0  0  0  0  0  0  0
    0.0000    3.0000    0.0000 O   0  0  0  0  0  0  0  0  0  0  0  0
    1.2990    0.7500    0.0000 O   0  0  0  0  0  0  0  0  0  0  0  0
    5.1962    4.5000    0.0000 S   0  0  0  0  0  0  0  0  0  0  0  0
    5.9462    5.7990    0.0000 O   0  0  0  0  0  0  0  0  0  0  0  0
    4.7164    3.8634    0.0000 O   0  0  0  0  0  0  0  0  0  0  0  0
    6.4952    3.7500    0.0000 C   0  0  0  0  0  0  0  0  0  0  0  0
    7.2452    5.0490    0.0000 F   0  0  0  0  0  0  0  0  0  0  0  0
    7.7942    3.0000    0.0000 F   0  0  0  0  0  0  0  0  0  0  0  0
    5.7452    2.4510    0.0000 C   0  0  0  0  0  0  0  0  0  0  0  0
    4.9299    2.7970    0.0000 F   0  0  0  0  0  0  0  0  0  0  0  0
    7.0442    1.7010    0.0000 F   0  0  0  0  0  0  0  0  0  0  0  0
    4.9952    1.1519    0.0000 C   0  0  0  0  0  0  0  0  0  0  0  0
    3.6962    1.9019    0.0000 F   0  0  0  0  0  0  0  0  0  0  0  0
    6.2942    0.4019    0.0000 F   0  0  0  0  0  0  0  0  0  0  0  0
    4.2452   -0.1471    0.0000 C   0  0  0  0  0  0  0  0  0  0  0  0
    2.9462    0.6029    0.0000 F   0  0  0  0  0  0  0  0  0  0  0  0
    5.5442   -0.8971    0.0000 F   0  0  0  0  0  0  0  0  0  0  0  0
    3.4952   -1.4462    0.0000 C   0  0  0  0  0  0  0  0  0  0  0  0
    2.1962   -0.6962    0.0000 F   0  0  0  0  0  0  0  0  0  0  0  0
    4.7942   -2.1962    0.0000 F   0  0  0  0  0  0  0  0  0  0  0  0
    2.7452   -2.7452    0.0000 C   0  0  0  0  0  0  0  0  0  0  0  0
    1.4462   -1.9952    0.0000 F   0  0  0  0  0  0  0  0  0  0  0  0
    4.0442   -3.4952    0.0000 F   0  0  0  0  0  0  0  0  0  0  0  0
    1.9952   -4.0442    0.0000 C   0  0  0  0  0  0  0  0  0  0  0  0
    0.6962   -3.2942    0.0000 F   0  0  0  0  0  0  0  0  0  0  0  0
    3.2942   -4.7942    0.0000 F   0  0  0  0  0  0  0  0  0  0  0  0
    1.2452   -5.3433    0.0000 C   0  0  0  0  0  0  0  0  0  0  0  0
    2.5442   -6.0933    0.0000 F   0  0  0  0  0  0  0  0  0  0  0  0
   -0.0538   -4.5933    0.0000 F   0  0  0  0  0  0  0  0  0  0  0  0
    0.4952   -6.6423    0.0000 C   0  0  0  0  0  0  0  0  0  0  0  0
   -0.8038   -5.8923    0.0000 F   0  0  0  0  0  0  0  0  0  0  0  0
    1.7942   -7.3923    0.0000 F   0  0  0  0  0  0  0  0  0  0  0  0
   -0.2548   -7.9413    0.0000 C   0  0  0  0  0  0  0  0  0  0  0  0
    1.0442   -8.6913    0.0000 F   0  0  0  0  0  0  0  0  0  0  0  0
   -1.5538   -7.1913    0.0000 F   0  0  0  0  0  0  0  0  0  0  0  0
   -1.0048   -9.2404    0.0000 C   0  0  0  0  0  0  0  0  0  0  0  0
   -2.3038   -8.4904    0.0000 F   0  0  0  0  0  0  0  0  0  0  0  0
    0.2942   -9.9904    0.0000 F   0  0  0  0  0  0  0  0  0  0  0  0
   -1.7548  -10.5394    0.0000 C   0  0  0  0  0  0  0  0  0  0  0  0
   -2.5048  -11.8385    0.0000 F   0  0  0  0  0  0  0  0  0  0  0  0
   -0.4558  -11.2894    0.0000 F   0  0  0  0  0  0  0  0  0  0  0  0
   -3.0538   -9.7894    0.0000 F   0  0  0  0  0  0  0  0  0  0  0  0
  1  2  1  0
  2  3  1  0
  2  4  1  0
  4  5  1  0
  5  6  1  0
  6  7  1  0
  7  8  1  0
  8  9  1  0
  9 10  1  0
 10 11  2  0
 10 12  1  0
  7 13  1  0
 13 14  2  0
 13 15  2  0
 13 16  1  0
 16 17  1  0
 16 18  1  0
 16 19  1  0
 19 20  1  0
 19 21  1  0
 19 22  1  0
 22 23  1  0
 22 24  1  0
 22 25  1  0
 25 26  1  0
 25 27  1  0
 25 28  1  0
 28 29  1  0
 28 30  1  0
 28 31  1  0
 31 32  1  0
 31 33  1  0
 31 34  1  0
 34 35  1  0
 34 36  1  0
 34 37  1  0
 37 38  1  0
 37 39  1  0
 37 40  1  0
 40 41  1  0
 40 42  1  0
 40 43  1  0
 43 44  1  0
 43 45  1  0
 43 46  1  0
 46 47  1  0
 46 48  1  0
 46 49  1  0
 49 50  1  0
 49 51  1  0
 49 52  1  0
M  END
$$$$

     RDKit          2D

 19 18  0  0  0  0  0  0  0  0999 V2000
    0.0000    0.0000    0.0000 C   0  0  0  0  0  0  0  0  0  0  0  0
    1.2990    0.7500    0.0000 N   0  0  0  0  0  0  0  0  0  0  0  0
    2.5981   -0.0000    0.0000 C   0  0  0  0  0  0  0  0  0  0  0  0
    3.8971    0.7500    0.0000 C   0  0  0  0  0  0  0  0  0  0  0  0
    3.8971    2.2500    0.0000 O   0  0  0  0  0  0  0  0  0  0  0  0
    5.1962   -0.0000    0.0000 O   0  0  0  0  0  0  0  0  0  0  0  0
    1.2990    2.2500    0.0000 S   0  0  0  0  0  0  0  0  0  0  0  0
    0.5078    2.1528    0.0000 O   0  0  0  0  0  0  0  0  0  0  0  0
    2.7990    2.2500    0.0000 O   0  0  0  0  0  0  0  0  0  0  0  0
    1.2990    3.7500    0.0000 C   0  0  0  0  0  0  0  0  0  0  0  0
    2.7990    3.7500    0.0000 F   0  0  0  0  0  0  0  0  0  0  0  0
    1.2990    5.2500    0.0000 F   0  0  0  0  0  0  0  0  0  0  0  0
   -0.2010    3.7500    0.0000 C   0  0  0  0  0  0  0  0  0  0  0  0
   -0.3089    2.8709    0.0000 F   0  0  0  0  0  0  0  0  0  0  0  0
   -0.2010    5.2500    0.0000 F   0  0  0  0  0  0  0  0  0  0  0  0
   -1.7010    3.7500    0.0000 C   0  0  0  0  0  0  0  0  0  0  0  0
   -3.2010    3.7500    0.0000 F   0  0  0  0  0  0  0  0  0  0  0  0
   -1.7010    5.2500    0.0000 F   0  0  0  0  0  0  0  0  0  0  0  0
   -1.7010    2.2500    0.0000 F   0  0  0  0  0  0  0  0  0  0  0  0
  1  2  1  0
  2  3  1  0
  3  4  1  0
  4  5  2  0
  4  6  1  0
  2  7  1  0
  7  8  2  0
  7  9  2  0
  7 10  1  0
 10 11  1  0
 10 12  1  0
 10 13  1  0
 13 14  1  0
 13 15  1  0
 13 16  1  0
 16 17  1  0
 16 18  1  0
 16 19  1  0
M  END
$$$$

     RDKit          2D

 29 28  0  0  0  0  0  0  0  0999 V2000
    0.0000    0.0000    0.0000 C   0  0  0  0  0  0  0  0  0  0  0  0
    1.2990    0.7500    0.0000 N   0  0  0  0  0  0  0  0  0  0  0  0
    2.5981    1.5000    0.0000 C   0  0  0  0  0  0  0  0  0  0  0  0
    2.0490   -0.5490    0.0000 C   0  0  0  0  0  0  0  0  0  0  0  0
    3.5490   -0.5490    0.0000 C   0  0  0  0  0  0  0  0  0  0  0  0
    4.2990   -1.8481    0.0000 C   0  0  0  0  0  0  0  0  0  0  0  0
    5.7990   -1.8481    0.0000 N   0  0  0  0  0  0  0  0  0  0  0  0
    6.5490   -3.1471    0.0000 C   0  0  0  0  0  0  0  0  0  0  0  0
    5.7990   -4.4462    0.0000 O   0  0  0  0  0  0  0  0  0  0  0  0
    8.0490   -3.1471    0.0000 C   0  0  0  0  0  0  0  0  0  0  0  0
    8.0490   -4.6471    0.0000 F   0  0  0  0  0  0  0  0  0  0  0  0
    8.0490   -1.6471    0.0000 F   0  0  0  0  0  0  0  0  0  0  0  0
    9.5490   -3.1471    0.0000 C   0  0  0  0  0  0  0  0  0  0  0  0
    9.5490   -1.6471    0.0000 F   0  0  0  0  0  0  0  0  0  0  0  0
    9.5490   -4.6471    0.0000 F   0  0  0  0  0  0  0  0  0  0  0  0
   11.0490   -3.1471    0.0000 C   0  0  0  0  0  0  0  0  0  0  0  0
   11.0490   -4.6471    0.0000 F   0  0  0  0  0  0  0  0  0  0  0  0
   11.0490   -1.6471    0.0000 F   0  0  0  0  0  0  0  0  0  0  0  0
   12.5490   -3.1471    0.0000 C   0  0  0  0  0  0  0  0  0  0  0  0
   12.5490   -1.6471    0.0000 F   0  0  0  0  0  0  0  0  0  0  0  0
   12.5490   -4.6471    0.0000 F   0  0  0  0  0  0  0  0  0  0  0  0
   14.0490   -3.1471    0.0000 C   0  0  0  0  0  0  0  0  0  0  0  0
   15.5490   -3.1471    0.0000 F   0  0  0  0  0  0  0  0  0  0  0  0
   14.0490   -4.6471    0.0000 F   0  0  0  0  0  0  0  0  0  0  0  0
   14.0490   -1.6471    0.0000 F   0  0  0  0  0  0  0  0  0  0  0  0
    0.5490    2.0490    0.0000 C   0  0  0  0  0  0  0  0  0  0  0  0
    1.2990    3.3481    0.0000 C   0  0  0  0  0  0  0  0  0  0  0  0
    2.7990    3.3481    0.0000 O   0  0  0  0  0  0  0  0  0  0  0  0
    0.5490    4.6471    0.0000 O   0  0  0  0  0  0  0  0  0  0  0  0
  1  2  1  0
  2  3  1  0
  2  4  1  0
  4  5  1  0
  5  6  1  0
  6  7  1  0
  7  8  1  0
  8  9  2  0
  8 10  1  0
 10 11  1  0
 10 12  1  0
 10 13  1  0
 13 14  1  0
 13 15  1  0
 13 16  1  0
 16 17  1  0
 16 18  1  0
 16 19  1  0
 19 20  1  0
 19 21  1  0
 19 22  1  0
 22 23  1  0
 22 24  1  0
 22 25  1  0
  2 26  1  0
 26 27  1  0
 27 28  2  0
 27 29  1  0
M  CHG  2   2   1  29  -1
M  END
$$$$

     RDKit          2D

 19 18  0  0  0  0  0  0  0  0999 V2000
    1.1979    2.4028    0.0000 O   0  0  0  0  0  0  0  0  0  0  0  0
    0.0000    1.5000    0.0000 S   0  0  0  0  0  0  0  0  0  0  0  0
   -1.2990    2.2500    0.0000 O   0  0  0  0  0  0  0  0  0  0  0  0
    0.0000    0.0000    0.0000 C   0  0  0  0  0  0  0  0  0  0  0  0
   -1.5000   -0.0000    0.0000 F   0  0  0  0  0  0  0  0  0  0  0  0
    0.0000   -1.5000    0.0000 F   0  0  0  0  0  0  0  0  0  0  0  0
    1.5000    0.0000    0.0000 C   0  0  0  0  0  0  0  0  0  0  0  0
    1.6828    1.4888    0.0000 F   0  0  0  0  0  0  0  0  0  0  0  0
    1.5000   -1.5000    0.0000 F   0  0  0  0  0  0  0  0  0  0  0  0
    3.0000    0.0000    0.0000 C   0  0  0  0  0  0  0  0  0  0  0  0
    3.0000   -1.5000    0.0000 F   0  0  0  0  0  0  0  0  0  0  0  0
    3.0000    1.5000    0.0000 F   0  0  0  0  0  0  0  0  0  0  0  0
    4.5000    0.0000    0.0000 C   0  0  0  0  0  0  0  0  0  0  0  0
    4.5000   -1.5000    0.0000 F   0  0  0  0  0  0  0  0  0  0  0  0
    4.5000    1.5000    0.0000 F   0  0  0  0  0  0  0  0  0  0  0  0
    6.0000    0.0000    0.0000 C   0  0  0  0  0  0  0  0  0  0  0  0
    7.5000    0.0000    0.0000 F   0  0  0  0  0  0  0  0  0  0  0  0
    6.0000    1.5000    0.0000 F   0  0  0  0  0  0  0  0  0  0  0  0
    6.0000   -1.5000    0.0000 F   0  0  0  0  0  0  0  0  0  0  0  0
  1  2  2  0
  2  3  1  0
  2  4  1  0
  4  5  1  0
  4  6  1  0
  4  7  1  0
  7  8  1  0
  7  9  1  0
  7 10  1  0
 10 11  1  0
 10 12  1  0
 10 13  1  0
 13 14  1  0
 13 15  1  0
 13 16  1  0
 16 17  1  0
 16 18  1  0
 16 19  1  0
M  END
$$$$

     RDKit          2D

 27 26  0  0  0  0  0  0  0  0999 V2000
   -0.9510   -2.0490    0.0000 O   0  0  0  0  0  0  0  0  0  0  0  0
   -2.2500   -1.2990    0.0000 S   0  0  0  0  0  0  0  0  0  0  0  0
   -3.5490   -0.5490    0.0000 O   0  0  0  0  0  0  0  0  0  0  0  0
   -3.0000   -2.5981    0.0000 O   0  0  0  0  0  0  0  0  0  0  0  0
   -1.5000    0.0000    0.0000 O   0  0  0  0  0  0  0  0  0  0  0  0
    0.0000    0.0000    0.0000 C   0  0  0  0  0  0  0  0  0  0  0  0
    0.0000    1.5000    0.0000 F   0  0  0  0  0  0  0  0  0  0  0  0
   -0.0000   -1.5000    0.0000 F   0  0  0  0  0  0  0  0  0  0  0  0
    1.5000    0.0000    0.0000 C   0  0  0  0  0  0  0  0  0  0  0  0
    1.5000    1.5000    0.0000 F   0  0  0  0  0  0  0  0  0  0  0  0
    1.5000   -1.5000    0.0000 F   0  0  0  0  0  0  0  0  0  0  0  0
    3.0000    0.0000    0.0000 C   0  0  0  0  0  0  0  0  0  0  0  0
    3.0000   -1.5000    0.0000 F   0  0  0  0  0  0  0  0  0  0  0  0
    3.0000    1.5000    0.0000 F   0  0  0  0  0  0  0  0  0  0  0  0
    4.5000    0.0000    0.0000 C   0  0  0  0  0  0  0  0  0  0  0  0
    4.5000   -1.5000    0.0000 F   0  0  0  0  0  0  0  0  0  0  0  0
    4.5000    1.5000    0.0000 F   0  0  0  0  0  0  0  0  0  0  0  0
    6.0000    0.0000    0.0000 C   0  0  0  0  0  0  0  0  0  0  0  0
    6.0000    1.5000    0.0000 F   0  0  0  0  0  0  0  0  0  0  0  0
    6.0000   -1.5000    0.0000 F   0  0  0  0  0  0  0  0  0  0  0  0
    7.5000    0.0000    0.0000 C   0  0  0  0  0  0  0  0  0  0  0  0
    7.5000   -1.5000    0.0000 F   0  0  0  0  0  0  0  0  0  0  0  0
    7.5000    1.5000    0.0000 F   0  0  0  0  0  0  0  0  0  0  0  0
    9.0000    0.0000    0.0000 C   0  0  0  0  0  0  0  0  0  0  0  0
   10.5000    0.0000    0.0000 F   0  0  0  0  0  0  0  0  0  0  0  0
    9.0000    1.5000    0.0000 F   0  0  0  0  0  0  0  0  0  0  0  0
    9.0000   -1.5000    0.0000 F   0  0  0  0  0  0  0  0  0  0  0  0
  1  2  2  0
  2  3  2  0
  2  4  1  0
  2  5  1  0
  5  6  1  0
  6  7  1  0
  6  8  1  0
  6  9  1  0
  9 10  1  0
  9 11  1  0
  9 12  1  0
 12 13  1  0
 12 14  1  0
 12 15  1  0
 15 16  1  0
 15 17  1  0
 15 18  1  0
 18 19  1  0
 18 20  1  0
 18 21  1  0
 21 22  1  0
 21 23  1  0
 21 24  1  0
 24 25  1  0
 24 26  1  0
 24 27  1  0
M  END
$$$$

     RDKit          2D

 58 57  0  0  0  0  0  0  0  0999 V2000
    7.0981    4.0981    0.0000 C   0  0  0  0  0  0  0  0  0  0  0  0
    5.7990    3.3481    0.0000 N   0  0  0  0  0  0  0  0  0  0  0  0
    4.5000    2.5981    0.0000 C   0  0  0  0  0  0  0  0  0  0  0  0
    6.5490    2.0490    0.0000 C   0  0  0  0  0  0  0  0  0  0  0  0
    5.7990    0.7500    0.0000 C   0  0  0  0  0  0  0  0  0  0  0  0
    6.5490   -0.5490    0.0000 C   0  0  0  0  0  0  0  0  0  0  0  0
    5.7990   -1.8481    0.0000 N   0  0  0  0  0  0  0  0  0  0  0  0
    6.5490   -3.1471    0.0000 S   0  0  0  0  0  0  0  0  0  0  0  0
    7.8481   -2.3971    0.0000 O   0  0  0  0  0  0  0  0  0  0  0  0
    5.8152   -3.4586    0.0000 O   0  0  0  0  0  0  0  0  0  0  0  0
    7.2990   -4.4462    0.0000 C   0  0  0  0  0  0  0  0  0  0  0  0
    8.5981   -3.6962    0.0000 F   0  0  0  0  0  0  0  0  0  0  0  0
    8.0490   -5.7452    0.0000 F   0  0  0  0  0  0  0  0  0  0  0  0
    6.0000   -5.1962    0.0000 C   0  0  0  0  0  0  0  0  0  0  0  0
    5.4669   -4.4888    0.0000 F   0  0  0  0  0  0  0  0  0  0  0  0
    6.7500   -6.4952    0.0000 F   0  0  0  0  0  0  0  0  0  0  0  0
    4.7010   -5.9462    0.0000 C   0  0  0  0  0  0  0  0  0  0  0  0
    5.4510   -7.2452    0.0000 F   0  0  0  0  0  0  0  0  0  0  0  0
    3.9510   -4.6471    0.0000 F   0  0  0  0  0  0  0  0  0  0  0  0
    3.4019   -6.6962    0.0000 C   0  0  0  0  0  0  0  0  0  0  0  0
    2.6519   -5.3971    0.0000 F   0  0  0  0  0  0  0  0  0  0  0  0
    4.1519   -7.9952    0.0000 F   0  0  0  0  0  0  0  0  0  0  0  0
    2.1029   -7.4462    0.0000 C   0  0  0  0  0  0  0  0  0  0  0  0
    2.8529   -8.7452    0.0000 F   0  0  0  0  0  0  0  0  0  0  0  0
    1.3529   -6.1471    0.0000 F   0  0  0  0  0  0  0  0  0  0  0  0
    0.8038   -8.1962    0.0000 C   0  0  0  0  0  0  0  0  0  0  0  0
    0.0538   -6.8971    0.0000 F   0  0  0  0  0  0  0  0  0  0  0  0
    1.5538   -9.4952    0.0000 F   0  0  0  0  0  0  0  0  0  0  0  0
   -0.4952   -8.9462    0.0000 C   0  0  0  0  0  0  0  0  0  0  0  0
    0.2548  -10.2452    0.0000 F   0  0  0  0  0  0  0  0  0  0  0  0
   -1.2452   -7.6471    0.0000 F   0  0  0  0  0  0  0  0  0  0  0  0
   -1.7942   -9.6962    0.0000 C   0  0  0  0  0  0  0  0  0  0  0  0
   -1.0442  -10.9952    0.0000 F   0  0  0  0  0  0  0  0  0  0  0  0
   -2.5442   -8.3971    0.0000 F   0  0  0  0  0  0  0  0  0  0  0  0
   -3.0933  -10.4462    0.0000 C   0  0  0  0  0  0  0  0  0  0  0  0
   -3.8433   -9.1471    0.0000 F   0  0  0  0  0  0  0  0  0  0  0  0
   -2.3433  -11.7452    0.0000 F   0  0  0  0  0  0  0  0  0  0  0  0
   -4.3923  -11.1962    0.0000 C   0  0  0  0  0  0  0  0  0  0  0  0
   -3.6423  -12.4952    0.0000 F   0  0  0  0  0  0  0  0  0  0  0  0
   -5.1423   -9.8971    0.0000 F   0  0  0  0  0  0  0  0  0  0  0  0
   -5.6913  -11.9462    0.0000 C   0  0  0  0  0  0  0  0  0  0  0  0
   -6.4413  -10.6471    0.0000 F   0  0  0  0  0  0  0  0  0  0  0  0
   -4.9413  -13.2452    0.0000 F   0  0  0  0  0  0  0  0  0  0  0  0
   -6.9904  -12.6962    0.0000 C   0  0  0  0  0  0  0  0  0  0  0  0
   -6.2404  -13.9952    0.0000 F   0  0  0  0  0  0  0  0  0  0  0  0
   -7.7404  -11.3971    0.0000 F   0  0  0  0  0  0  0  0  0  0  0  0
   -8.2894  -13.4462    0.0000 C   0  0  0  0  0  0  0  0  0  0  0  0
   -9.0394  -12.1471    0.0000 F   0  0  0  0  0  0  0  0  0  0  0  0
   -7.5394  -14.7452    0.0000 F   0  0  0  0  0  0  0  0  0  0  0  0
   -9.5885  -14.1962    0.0000 C   0  0  0  0  0  0  0  0  0  0  0  0
  -10.8875  -14.9462    0.0000 F   0  0  0  0  0  0  0  0  0  0  0  0
   -8.8385  -15.4952    0.0000 F   0  0  0  0  0  0  0  0  0  0  0  0
  -10.3385  -12.8971    0.0000 F   0  0  0  0  0  0  0  0  0  0  0  0
    5.0490    4.6471    0.0000 C   0  0  0  0  0  0  0  0  0  0  0  0
    3.5490    4.6471    0.0000 C   0  0  0  0  0  0  0  0  0  0  0  0
    2.7990    5.9462    0.0000 C   0  0  0  0  0  0  0  0  0  0  0  0
    3.5490    7.2452    0.0000 O   0  0  0  0  0  0  0  0  0  0  0  0
    1.2990    5.9462    0.0000 O   0  0  0  0  0  0  0  0  0  0  0  0
  1  2  1  0
  2  3  1  0
  2  4  1  0
  4  5  1  0
  5  6  1  0
  6  7  1  0
  7  8  1  0
  8  9  2  0
  8 10  2  0
  8 11  1  0
 11 12  1  0
 11 13  1  0
 11 14  1  0
 14 15  1  0
 14 16  1  0
 14 17  1  0
 17 18  1  0
 17 19  1  0
 17 20  1  0
 20 21  1  0
 20 22  1  0
 20 23  1  0
 23 24  1  0
 23 25  1  0
 23 26  1  0
 26 27  1  0
 26 28  1  0
 26 29  1  0
 29 30  1  0
 29 31  1  0
 29 32  1  0
 32 33  1  0
 32 34  1  0
 32 35  1  0
 35 36  1  0
 35 37  1  0
 35 38  1  0
 38 39  1  0
 38 40  1  0
 38 41  1  0
 41 42  1  0
 41 43  1  0
 41 44  1  0
 44 45  1  0
 44 46  1  0
 44 47  1  0
 47 48  1  0
 47 49  1  0
 47 50  1  0
 50 51  1  0
 50 52  1  0
 50 53  1  0
  2 54  1  0
 54 55  1  0
 55 56  1  0
 56 57  2  0
 56 58  1  0
M  CHG  2   2   1  58  -1
M  END
$$$$

     RDKit          2D

 60 59  0  0  0  0  0  0  0  0999 V2000
   10.2990   -5.9462    0.0000 C   0  0  0  0  0  0  0  0  0  0  0  0
   10.2990   -4.4462    0.0000 N   0  0  0  0  0  0  0  0  0  0  0  0
   10.2990   -2.9462    0.0000 C   0  0  0  0  0  0  0  0  0  0  0  0
    8.7990   -4.4462    0.0000 C   0  0  0  0  0  0  0  0  0  0  0  0
    8.0490   -3.1471    0.0000 C   0  0  0  0  0  0  0  0  0  0  0  0
    6.5490   -3.1471    0.0000 C   0  0  0  0  0  0  0  0  0  0  0  0
    5.7990   -1.8481    0.0000 N   0  0  0  0  0  0  0  0  0  0  0  0
    4.2990   -1.8481    0.0000 C   0  0  0  0  0  0  0  0  0  0  0  0
    3.5490   -0.5490    0.0000 C   0  0  0  0  0  0  0  0  0  0  0  0
    2.0490   -0.5490    0.0000 C   0  0  0  0  0  0  0  0  0  0  0  0
    1.2990   -1.8481    0.0000 O   0  0  0  0  0  0  0  0  0  0  0  0
    1.2990    0.7500    0.0000 O   0  0  0  0  0  0  0  0  0  0  0  0
    6.5490   -0.5490    0.0000 S   0  0  0  0  0  0  0  0  0  0  0  0
    7.8481   -1.2990    0.0000 O   0  0  0  0  0  0  0  0  0  0  0  0
    5.8152   -0.2376    0.0000 O   0  0  0  0  0  0  0  0  0  0  0  0
    7.2990    0.7500    0.0000 C   0  0  0  0  0  0  0  0  0  0  0  0
    8.5981    0.0000    0.0000 F   0  0  0  0  0  0  0  0  0  0  0  0
    8.0490    2.0490    0.0000 F   0  0  0  0  0  0  0  0  0  0  0  0
    6.0000    1.5000    0.0000 C   0  0  0  0  0  0  0  0  0  0  0  0
    5.4669    0.7926    0.0000 F   0  0  0  0  0  0  0  0  0  0  0  0
    6.7500    2.7990    0.0000 F   0  0  0  0  0  0  0  0  0  0  0  0
    4.7010    2.2500    0.0000 C   0  0  0  0  0  0  0  0  0  0  0  0
    3.9510    0.9510    0.0000 F   0  0  0  0  0  0  0  0  0  0  0  0
    5.4510    3.5490    0.0000 F   0  0  0  0  0  0  0  0  0  0  0  0
    3.4019    3.0000    0.0000 C   0  0  0  0  0  0  0  0  0  0  0  0
    2.6519    1.7010    0.0000 F   0  0  0  0  0  0  0  0  0  0  0  0
    4.1519    4.2990    0.0000 F   0  0  0  0  0  0  0  0  0  0  0  0
    2.1029    3.7500    0.0000 C   0  0  0  0  0  0  0  0  0  0  0  0
    1.3529    2.4510    0.0000 F   0  0  0  0  0  0  0  0  0  0  0  0
    2.8529    5.0490    0.0000 F   0  0  0  0  0  0  0  0  0  0  0  0
    0.8038    4.5000    0.0000 C   0  0  0  0  0  0  0  0  0  0  0  0
    0.0538    3.2010    0.0000 F   0  0  0  0  0  0  0  0  0  0  0  0
    1.5538    5.7990    0.0000 F   0  0  0  0  0  0  0  0  0  0  0  0
   -0.4952    5.2500    0.0000 C   0  0  0  0  0  0  0  0  0  0  0  0
    0.2548    6.5490    0.0000 F   0  0  0  0  0  0  0  0  0  0  0  0
   -1.2452    3.9510    0.0000 F   0  0  0  0  0  0  0  0  0  0  0  0
   -1.7942    6.0000    0.0000 C   0  0  0  0  0  0  0  0  0  0  0  0
   -1.0442    7.2990    0.0000 F   0  0  0  0  0  0  0  0  0  0  0  0
   -2.5442    4.7010    0.0000 F   0  0  0  0  0  0  0  0  0  0  0  0
   -3.0933    6.7500    0.0000 C   0  0  0  0  0  0  0  0  0  0  0  0
   -3.8433    5.4510    0.0000 F   0  0  0  0  0  0  0  0  0  0  0  0
   -2.3433    8.0490    0.0000 F   0  0  0  0  0  0  0  0  0  0  0  0
   -4.3923    7.5000    0.0000 C   0  0  0  0  0  0  0  0  0  0  0  0
   -3.6423    8.7990    0.0000 F   0  0  0  0  0  0  0  0  0  0  0  0
   -5.1423    6.2010    0.0000 F   0  0  0  0  0  0  0  0  0  0  0  0
   -5.6913    8.2500    0.0000 C   0  0  0  0  0  0  0  0  0  0  0  0
   -6.4413    6.9510    0.0000 F   0  0  0  0  0  0  0  0  0  0  0  0
   -4.9413    9.5490    0.0000 F   0  0  0  0  0  0  0  0  0  0  0  0
   -6.9904    9.0000    0.0000 C   0  0  0  0  0  0  0  0  0  0  0  0
   -6.2404   10.2990    0.0000 F   0  0  0  0  0  0  0  0  0  0  0  0
   -7.7404    7.7010    0.0000 F   0  0  0  0  0  0  0  0  0  0  0  0
   -8.2894    9.7500    0.0000 C   0  0  0  0  0  0  0  0  0  0  0  0
   -9.5885   10.5000    0.0000 F   0  0  0  0  0  0  0  0  0  0  0  0
   -9.0394    8.4510    0.0000 F   0  0  0  0  0  0  0  0  0  0  0  0
   -7.5394   11.0490    0.0000 F   0  0  0  0  0  0  0  0  0  0  0  0
   11.7990   -4.4462    0.0000 C   0  0  0  0  0  0  0  0  0  0  0  0
   12.5490   -3.1471    0.0000 C   0  0  0  0  0  0  0  0  0  0  0  0
   14.0490   -3.1471    0.0000 C   0  0  0  0  0  0  0  0  0  0  0  0
   14.7990   -4.4462    0.0000 O   0  0  0  0  0  0  0  0  0  0  0  0
   14.7990   -1.8481    0.0000 O   0  0  0  0  0  0  0  0  0  0  0  0
  1  2  1  0
  2  3  1  0
  2  4  1  0
  4  5  1  0
  5  6  1  0
  6  7  1  0
  7  8  1  0
  8  9  1  0
  9 10  1  0
 10 11  2  0
 10 12  1  0
  7 13  1  0
 13 14  2  0
 13 15  2  0
 13 16  1  0
 16 17  1  0
 16 18  1  0
 16 19  1  0
 19 20  1  0
 19 21  1  0
 19 22  1  0
 22 23  1  0
 22 24  1  0
 22 25  1  0
 25 26  1  0
 25 27  1  0
 25 28  1  0
 28 29  1  0
 28 30  1  0
 28 31  1  0
 31 32  1  0
 31 33  1  0
 31 34  1  0
 34 35  1  0
 34 36  1  0
 34 37  1  0
 37 38  1  0
 37 39  1  0
 37 40  1  0
 40 41  1  0
 40 42  1  0
 40 43  1  0
 43 44  1  0
 43 45  1  0
 43 46  1  0
 46 47  1  0
 46 48  1  0
 46 49  1  0
 49 50  1  0
 49 51  1  0
 49 52  1  0
 52 53  1  0
 52 54  1  0
 52 55  1  0
  2 56  1  0
 56 57  1  0
 57 58  1  0
 58 59  2  0
 58 60  1  0
M  CHG  2   2   1  60  -1
M  END
$$$$

     RDKit          2D

 23 23  0  0  0  0  0  0  0  0999 V2000
    2.2848    2.2141    0.0000 O   0  0  0  0  0  0  0  0  0  0  0  0
    2.3907    1.0037    0.0000 C   0  0  0  0  0  0  0  0  0  0  0  0
    3.8173    0.5402    0.0000 O   0  0  0  0  0  0  0  0  0  0  0  0
    1.2760    0.0000    0.0000 C   0  0  0  0  0  0  0  0  0  0  0  0
    2.3907   -1.0037    0.0000 F   0  0  0  0  0  0  0  0  0  0  0  0
    0.3943    1.2135    0.0000 C   0  0  0  0  0  0  0  0  0  0  0  0
   -0.2158    2.5838    0.0000 F   0  0  0  0  0  0  0  0  0  0  0  0
    1.3646    1.9448    0.0000 F   0  0  0  0  0  0  0  0  0  0  0  0
   -1.0323    0.7500    0.0000 C   0  0  0  0  0  0  0  0  0  0  0  0
   -2.5241    0.5932    0.0000 F   0  0  0  0  0  0  0  0  0  0  0  0
   -1.3442    2.2172    0.0000 F   0  0  0  0  0  0  0  0  0  0  0  0
   -1.0323   -0.7500    0.0000 C   0  0  0  0  0  0  0  0  0  0  0  0
   -2.5241   -0.5932    0.0000 F   0  0  0  0  0  0  0  0  0  0  0  0
   -1.3442   -2.2172    0.0000 C   0  0  0  0  0  0  0  0  0  0  0  0
   -2.8114   -1.9054    0.0000 F   0  0  0  0  0  0  0  0  0  0  0  0
   -0.5904   -2.4768    0.0000 F   0  0  0  0  0  0  0  0  0  0  0  0
   -1.6560   -3.6844    0.0000 C   0  0  0  0  0  0  0  0  0  0  0  0
   -1.9679   -5.1517    0.0000 F   0  0  0  0  0  0  0  0  0  0  0  0
   -3.1232   -3.3726    0.0000 F   0  0  0  0  0  0  0  0  0  0  0  0
   -0.1888   -3.9963    0.0000 F   0  0  0  0  0  0  0  0  0  0  0  0
    0.3943   -1.2135    0.0000 C   0  0  0  0  0  0  0  0  0  0  0  0
    1.6933   -1.9635    0.0000 F   0  0  0  0  0  0  0  0  0  0  0  0
    0.1613   -1.9759    0.0000 F   0  0  0  0  0  0  0  0  0  0  0  0
  1  2  2  0
  2  3  1  0
  2  4  1  0
  4  5  1  0
  4  6  1  0
  6  7  1  0
  6  8  1  0
  6  9  1  0
  9 10  1  0
  9 11  1  0
  9 12  1  0
 12 13  1  0
 12 14  1  0
 14 15  1  0
 14 16  1  0
 14 17  1  0
 17 18  1  0
 17 19  1  0
 17 20  1  0
 12 21  1  0
 21 22  1  0
 21 23  1  0
 21  4  1  0
M  END
$$$$

     RDKit          2D

 24 24  0  0  0  0  0  0  0  0999 V2000
    3.6132    0.1849    0.0000 O   0  0  0  0  0  0  0  0  0  0  0  0
    2.6491   -0.9642    0.0000 S   0  0  0  0  0  0  0  0  0  0  0  0
    2.2149   -1.6327    0.0000 O   0  0  0  0  0  0  0  0  0  0  0  0
    3.7981   -1.9284    0.0000 O   0  0  0  0  0  0  0  0  0  0  0  0
    1.5000    0.0000    0.0000 C   0  0  0  0  0  0  0  0  0  0  0  0
    2.6491    0.9642    0.0000 F   0  0  0  0  0  0  0  0  0  0  0  0
    0.7500   -1.2990    0.0000 C   0  0  0  0  0  0  0  0  0  0  0  0
    1.5392   -1.7012    0.0000 F   0  0  0  0  0  0  0  0  0  0  0  0
    0.4895   -2.7762    0.0000 F   0  0  0  0  0  0  0  0  0  0  0  0
   -0.7500   -1.2990    0.0000 C   0  0  0  0  0  0  0  0  0  0  0  0
   -0.4895   -2.7762    0.0000 F   0  0  0  0  0  0  0  0  0  0  0  0
   -2.1595   -1.8121    0.0000 F   0  0  0  0  0  0  0  0  0  0  0  0
   -1.5000    0.0000    0.0000 C   0  0  0  0  0  0  0  0  0  0  0  0
   -2.6491   -0.9642    0.0000 F   0  0  0  0  0  0  0  0  0  0  0  0
   -2.7580    0.8169    0.0000 F   0  0  0  0  0  0  0  0  0  0  0  0
   -0.7500    1.2990    0.0000 C   0  0  0  0  0  0  0  0  0  0  0  0
   -0.4895    2.7762    0.0000 F   0  0  0  0  0  0  0  0  0  0  0  0
   -2.1595    1.8121    0.0000 C   0  0  0  0  0  0  0  0  0  0  0  0
   -3.5691    2.3251    0.0000 F   0  0  0  0  0  0  0  0  0  0  0  0
   -1.6465    3.2216    0.0000 F   0  0  0  0  0  0  0  0  0  0  0  0
   -2.8406    0.4756    0.0000 F   0  0  0  0  0  0  0  0  0  0  0  0
    0.7500    1.2990    0.0000 C   0  0  0  0  0  0  0  0  0  0  0  0
    0.4895    2.7762    0.0000 F   0  0  0  0  0  0  0  0  0  0  0  0
    2.1595    1.8121    0.0000 F   0  0  0  0  0  0  0  0  0  0  0  0
  1  2  2  0
  2  3  2  0
  2  4  1  0
  2  5  1  0
  5  6  1  0
  5  7  1  0
  7  8  1  0
  7  9  1  0
  7 10  1  0
 10 11  1  0
 10 12  1  0
 10 13  1  0
 13 14  1  0
 13 15  1  0
 13 16  1  0
 16 17  1  0
 16 18  1  0
 18 19  1  0
 18 20  1  0
 18 21  1  0
 16 22  1  0
 22 23  1  0
 22 24  1  0
 22  5  1  0
M  CHG  1   4  -1
M  END
$$$$

     RDKit          2D

 33 33  0  0  0  0  0  0  0  0999 V2000
    3.6132    0.1849    0.0000 O   0  0  0  0  0  0  0  0  0  0  0  0
    2.6491   -0.9642    0.0000 S   0  0  0  0  0  0  0  0  0  0  0  0
    2.2149   -1.6327    0.0000 O   0  0  0  0  0  0  0  0  0  0  0  0
    3.7981   -1.9284    0.0000 O   0  0  0  0  0  0  0  0  0  0  0  0
    1.5000    0.0000    0.0000 C   0  0  0  0  0  0  0  0  0  0  0  0
    2.6491    0.9642    0.0000 F   0  0  0  0  0  0  0  0  0  0  0  0
    0.7500   -1.2990    0.0000 C   0  0  0  0  0  0  0  0  0  0  0  0
    1.5392   -1.7012    0.0000 F   0  0  0  0  0  0  0  0  0  0  0  0
    0.4895   -2.7762    0.0000 F   0  0  0  0  0  0  0  0  0  0  0  0
   -0.7500   -1.2990    0.0000 C   0  0  0  0  0  0  0  0  0  0  0  0
   -0.4895   -2.7762    0.0000 F   0  0  0  0  0  0  0  0  0  0  0  0
   -2.1595   -1.8121    0.0000 F   0  0  0  0  0  0  0  0  0  0  0  0
   -1.5000    0.0000    0.0000 C   0  0  0  0  0  0  0  0  0  0  0  0
   -2.6491   -0.9642    0.0000 F   0  0  0  0  0  0  0  0  0  0  0  0
   -2.7580    0.8169    0.0000 F   0  0  0  0  0  0  0  0  0  0  0  0
   -0.7500    1.2990    0.0000 C   0  0  0  0  0  0  0  0  0  0  0  0
   -0.4895    2.7762    0.0000 F   0  0  0  0  0  0  0  0  0  0  0  0
   -2.1595    1.8121    0.0000 C   0  0  0  0  0  0  0  0  0  0  0  0
   -1.6465    3.2216    0.0000 F   0  0  0  0  0  0  0  0  0  0  0  0
   -2.8406    0.4756    0.0000 F   0  0  0  0  0  0  0  0  0  0  0  0
   -3.5691    2.3251    0.0000 C   0  0  0  0  0  0  0  0  0  0  0  0
   -3.0560    3.7346    0.0000 F   0  0  0  0  0  0  0  0  0  0  0  0
   -4.0821    0.9156    0.0000 F   0  0  0  0  0  0  0  0  0  0  0  0
   -4.9786    2.8381    0.0000 C   0  0  0  0  0  0  0  0  0  0  0  0
   -5.4916    1.4286    0.0000 F   0  0  0  0  0  0  0  0  0  0  0  0
   -4.4656    4.2477    0.0000 F   0  0  0  0  0  0  0  0  0  0  0  0
   -6.3882    3.3512    0.0000 C   0  0  0  0  0  0  0  0  0  0  0  0
   -7.7977    3.8642    0.0000 F   0  0  0  0  0  0  0  0  0  0  0  0
   -5.8751    4.7607    0.0000 F   0  0  0  0  0  0  0  0  0  0  0  0
   -6.9012    1.9416    0.0000 F   0  0  0  0  0  0  0  0  0  0  0  0
    0.7500    1.2990    0.0000 C   0  0  0  0  0  0  0  0  0  0  0  0
    0.4895    2.7762    0.0000 F   0  0  0  0  0  0  0  0  0  0  0  0
    2.1595    1.8121    0.0000 F   0  0  0  0  0  0  0  0  0  0  0  0
  1  2  2  0
  2  3  2  0
  2  4  1  0
  2  5  1  0
  5  6  1  0
  5  7  1  0
  7  8  1  0
  7  9  1  0
  7 10  1  0
 10 11  1  0
 10 12  1  0
 10 13  1  0
 13 14  1  0
 13 15  1  0
 13 16  1  0
 16 17  1  0
 16 18  1  0
 18 19  1  0
 18 20  1  0
 18 21  1  0
 21 22  1  0
 21 23  1  0
 21 24  1  0
 24 25  1  0
 24 26  1  0
 24 27  1  0
 27 28  1  0
 27 29  1  0
 27 30  1  0
 16 31  1  0
 31 32  1  0
 31 33  1  0
 31  5  1  0
M  CHG  1   4  -1
M  END
$$$$

     RDKit          2D

 51 50  0  0  0  0  0  0  0  0999 V2000
    0.0000    0.0000    0.0000 C   0  0  0  0  0  0  0  0  0  0  0  0
    1.2990    0.7500    0.0000 N   0  0  0  0  0  0  0  0  0  0  0  0
    2.5981    1.5000    0.0000 C   0  0  0  0  0  0  0  0  0  0  0  0
    2.0490   -0.5490    0.0000 C   0  0  0  0  0  0  0  0  0  0  0  0
    3.5490   -0.5490    0.0000 C   0  0  0  0  0  0  0  0  0  0  0  0
    4.2990   -1.8481    0.0000 C   0  0  0  0  0  0  0  0  0  0  0  0
    5.7990   -1.8481    0.0000 N   0  0  0  0  0  0  0  0  0  0  0  0
    6.5490   -3.1471    0.0000 C   0  0  0  0  0  0  0  0  0  0  0  0
    8.0490   -3.1471    0.0000 C   0  0  0  0  0  0  0  0  0  0  0  0
    8.9518   -1.9492    0.0000 O   0  0  0  0  0  0  0  0  0  0  0  0
    8.7990   -4.4462    0.0000 C   0  0  0  0  0  0  0  0  0  0  0  0
   10.2990   -4.4462    0.0000 S   0  0  0  0  0  0  0  0  0  0  0  0
   10.2990   -5.9462    0.0000 O   0  0  0  0  0  0  0  0  0  0  0  0
   10.1162   -2.9573    0.0000 O   0  0  0  0  0  0  0  0  0  0  0  0
   11.7879   -4.6290    0.0000 O   0  0  0  0  0  0  0  0  0  0  0  0
    6.5490   -0.5490    0.0000 S   0  0  0  0  0  0  0  0  0  0  0  0
    5.2500    0.2010    0.0000 O   0  0  0  0  0  0  0  0  0  0  0  0
    7.1857   -1.0288    0.0000 O   0  0  0  0  0  0  0  0  0  0  0  0
    7.2990    0.7500    0.0000 C   0  0  0  0  0  0  0  0  0  0  0  0
    6.0000    1.5000    0.0000 F   0  0  0  0  0  0  0  0  0  0  0  0
    8.0490    2.0490    0.0000 F   0  0  0  0  0  0  0  0  0  0  0  0
    8.5981    0.0000    0.0000 C   0  0  0  0  0  0  0  0  0  0  0  0
    9.3481    1.2990    0.0000 F   0  0  0  0  0  0  0  0  0  0  0  0
    8.2520   -0.8153    0.0000 F   0  0  0  0  0  0  0  0  0  0  0  0
    9.8971   -0.7500    0.0000 C   0  0  0  0  0  0  0  0  0  0  0  0
   10.6471    0.5490    0.0000 F   0  0  0  0  0  0  0  0  0  0  0  0
    9.3111   -2.1308    0.0000 F   0  0  0  0  0  0  0  0  0  0  0  0
   11.1962   -1.5000    0.0000 C   0  0  0  0  0  0  0  0  0  0  0  0
   11.9462   -0.2010    0.0000 F   0  0  0  0  0  0  0  0  0  0  0  0
   10.2934   -2.6979    0.0000 F   0  0  0  0  0  0  0  0  0  0  0  0
   12.4952   -2.2500    0.0000 C   0  0  0  0  0  0  0  0  0  0  0  0
   13.2452   -0.9510    0.0000 F   0  0  0  0  0  0  0  0  0  0  0  0
   11.9091   -3.6308    0.0000 F   0  0  0  0  0  0  0  0  0  0  0  0
   13.7942   -3.0000    0.0000 C   0  0  0  0  0  0  0  0  0  0  0  0
   14.5442   -1.7010    0.0000 F   0  0  0  0  0  0  0  0  0  0  0  0
   13.0442   -4.2990    0.0000 F   0  0  0  0  0  0  0  0  0  0  0  0
   15.0933   -3.7500    0.0000 C   0  0  0  0  0  0  0  0  0  0  0  0
   15.8433   -2.4510    0.0000 F   0  0  0  0  0  0  0  0  0  0  0  0
   14.3433   -5.0490    0.0000 F   0  0  0  0  0  0  0  0  0  0  0  0
   16.3923   -4.5000    0.0000 C   0  0  0  0  0  0  0  0  0  0  0  0
   17.6913   -5.2500    0.0000 F   0  0  0  0  0  0  0  0  0  0  0  0
   15.6423   -5.7990    0.0000 F   0  0  0  0  0  0  0  0  0  0  0  0
   17.1423   -3.2010    0.0000 F   0  0  0  0  0  0  0  0  0  0  0  0
    0.5490    2.0490    0.0000 C   0  0  0  0  0  0  0  0  0  0  0  0
    1.2990    3.3481    0.0000 C   0  0  0  0  0  0  0  0  0  0  0  0
    2.7990    3.3481    0.0000 O   0  0  0  0  0  0  0  0  0  0  0  0
    0.5490    4.6471    0.0000 C   0  0  0  0  0  0  0  0  0  0  0  0
    1.2990    5.9462    0.0000 S   0  0  0  0  0  0  0  0  0  0  0  0
    0.0000    6.6962    0.0000 O   0  0  0  0  0  0  0  0  0  0  0  0
    2.5981    5.1962    0.0000 O   0  0  0  0  0  0  0  0  0  0  0  0
    2.0490    7.2452    0.0000 O   0  0  0  0  0  0  0  0  0  0  0  0
  1  2  1  0
  2  3  1  0
  2  4  1  0
  4  5  1  0
  5  6  1  0
  6  7  1  0
  7  8  1  0
  8  9  1  0
  9 10  1  0
  9 11  1  0
 11 12  1  0
 12 13  2  0
 12 14  2  0
 12 15  1  0
  7 16  1  0
 16 17  2  0
 16 18  2  0
 16 19  1  0
 19 20  1  0
 19 21  1  0
 19 22  1  0
 22 23  1  0
 22 24  1  0
 22 25  1  0
 25 26  1  0
 25 27  1  0
 25 28  1  0
 28 29  1  0
 28 30  1  0
 28 31  1  0
 31 32  1  0
 31 33  1  0
 31 34  1  0
 34 35  1  0
 34 36  1  0
 34 37  1  0
 37 38  1  0
 37 39  1  0
 37 40  1  0
 40 41  1  0
 40 42  1  0
 40 43  1  0
  2 44  1  0
 44 45  1  0
 45 46  1  0
 45 47  1  0
 47 48  1  0
 48 49  2  0
 48 50  2  0
 48 51  1  0
M  CHG  1   2   1
M  END
$$$$

     RDKit          2D

 33 33  0  0  0  0  0  0  0  0999 V2000
    3.6132    0.1849    0.0000 O   0  0  0  0  0  0  0  0  0  0  0  0
    2.6491   -0.9642    0.0000 S   0  0  0  0  0  0  0  0  0  0  0  0
    2.2149   -1.6327    0.0000 O   0  0  0  0  0  0  0  0  0  0  0  0
    3.7981   -1.9284    0.0000 O   0  0  0  0  0  0  0  0  0  0  0  0
    1.5000    0.0000    0.0000 C   0  0  0  0  0  0  0  0  0  0  0  0
    2.6491    0.9642    0.0000 F   0  0  0  0  0  0  0  0  0  0  0  0
    0.7500   -1.2990    0.0000 C   0  0  0  0  0  0  0  0  0  0  0  0
    1.5392   -1.7012    0.0000 F   0  0  0  0  0  0  0  0  0  0  0  0
    0.4895   -2.7762    0.0000 F   0  0  0  0  0  0  0  0  0  0  0  0
   -0.7500   -1.2990    0.0000 C   0  0  0  0  0  0  0  0  0  0  0  0
   -0.4895   -2.7762    0.0000 F   0  0  0  0  0  0  0  0  0  0  0  0
   -2.1595   -1.8121    0.0000 F   0  0  0  0  0  0  0  0  0  0  0  0
   -1.5000    0.0000    0.0000 C   0  0  0  0  0  0  0  0  0  0  0  0
   -2.6491   -0.9642    0.0000 F   0  0  0  0  0  0  0  0  0  0  0  0
   -2.7580    0.8169    0.0000 F   0  0  0  0  0  0  0  0  0  0  0  0
   -0.7500    1.2990    0.0000 C   0  0  0  0  0  0  0  0  0  0  0  0
   -0.4895    2.7762    0.0000 F   0  0  0  0  0  0  0  0  0  0  0  0
   -2.1595    1.8121    0.0000 C   0  0  0  0  0  0  0  0  0  0  0  0
   -1.6465    3.2216    0.0000 F   0  0  0  0  0  0  0  0  0  0  0  0
   -2.8406    0.4756    0.0000 F   0  0  0  0  0  0  0  0  0  0  0  0
   -3.5691    2.3251    0.0000 C   0  0  0  0  0  0  0  0  0  0  0  0
   -3.0560    3.7346    0.0000 F   0  0  0  0  0  0  0  0  0  0  0  0
   -4.0821    0.9156    0.0000 F   0  0  0  0  0  0  0  0  0  0  0  0
   -4.9786    2.8381    0.0000 C   0  0  0  0  0  0  0  0  0  0  0  0
   -5.4916    1.4286    0.0000 F   0  0  0  0  0  0  0  0  0  0  0  0
   -4.4656    4.2477    0.0000 F   0  0  0  0  0  0  0  0  0  0  0  0
   -6.3882    3.3512    0.0000 C   0  0  0  0  0  0  0  0  0  0  0  0
   -7.7977    3.8642    0.0000 F   0  0  0  0  0  0  0  0  0  0  0  0
   -5.8751    4.7607    0.0000 F   0  0  0  0  0  0  0  0  0  0  0  0
   -6.9012    1.9416    0.0000 F   0  0  0  0  0  0  0  0  0  0  0  0
    0.7500    1.2990    0.0000 C   0  0  0  0  0  0  0  0  0  0  0  0
    0.4895    2.7762    0.0000 F   0  0  0  0  0  0  0  0  0  0  0  0
    2.1595    1.8121    0.0000 F   0  0  0  0  0  0  0  0  0  0  0  0
  1  2  2  0
  2  3  2  0
  2  4  1  0
  2  5  1  0
  5  6  1  0
  5  7  1  0
  7  8  1  0
  7  9  1  0
  7 10  1  0
 10 11  1  0
 10 12  1  0
 10 13  1  0
 13 14  1  0
 13 15  1  0
 13 16  1  0
 16 17  1  0
 16 18  1  0
 18 19  1  0
 18 20  1  0
 18 21  1  0
 21 22  1  0
 21 23  1  0
 21 24  1  0
 24 25  1  0
 24 26  1  0
 24 27  1  0
 27 28  1  0
 27 29  1  0
 27 30  1  0
 16 31  1  0
 31 32  1  0
 31 33  1  0
 31  5  1  0
M  END
$$$$

     RDKit          2D

 34 33  0  0  0  0  0  0  0  0999 V2000
   -0.0000   -1.5000    0.0000 O   0  0  0  0  0  0  0  0  0  0  0  0
    0.0000    0.0000    0.0000 C   0  0  0  0  0  0  0  0  0  0  0  0
   -1.2990    0.7500    0.0000 O   0  0  0  0  0  0  0  0  0  0  0  0
    1.2990    0.7500    0.0000 C   0  0  0  0  0  0  0  0  0  0  0  0
    2.0490   -0.5490    0.0000 F   0  0  0  0  0  0  0  0  0  0  0  0
    0.5490    2.0490    0.0000 F   0  0  0  0  0  0  0  0  0  0  0  0
    2.5981    1.5000    0.0000 C   0  0  0  0  0  0  0  0  0  0  0  0
    1.8481    2.7990    0.0000 F   0  0  0  0  0  0  0  0  0  0  0  0
    3.3481    0.2010    0.0000 Cl  0  0  0  0  0  0  0  0  0  0  0  0
    3.8971    2.2500    0.0000 C   0  0  0  0  0  0  0  0  0  0  0  0
    3.1471    3.5490    0.0000 F   0  0  0  0  0  0  0  0  0  0  0  0
    4.6471    0.9510    0.0000 F   0  0  0  0  0  0  0  0  0  0  0  0
    5.1962    3.0000    0.0000 C   0  0  0  0  0  0  0  0  0  0  0  0
    5.9462    1.7010    0.0000 F   0  0  0  0  0  0  0  0  0  0  0  0
    4.4462    4.2990    0.0000 F   0  0  0  0  0  0  0  0  0  0  0  0
    6.4952    3.7500    0.0000 C   0  0  0  0  0  0  0  0  0  0  0  0
    5.7452    5.0490    0.0000 F   0  0  0  0  0  0  0  0  0  0  0  0
    7.2452    2.4510    0.0000 F   0  0  0  0  0  0  0  0  0  0  0  0
    7.7942    4.5000    0.0000 C   0  0  0  0  0  0  0  0  0  0  0  0
    8.5442    3.2010    0.0000 F   0  0  0  0  0  0  0  0  0  0  0  0
    7.0442    5.7990    0.0000 F   0  0  0  0  0  0  0  0  0  0  0  0
    9.0933    5.2500    0.0000 C   0  0  0  0  0  0  0  0  0  0  0  0
    9.8433    3.9510    0.0000 F   0  0  0  0  0  0  0  0  0  0  0  0
    8.3433    6.5490    0.0000 F   0  0  0  0  0  0  0  0  0  0  0  0
   10.3923    6.0000    0.0000 C   0  0  0  0  0  0  0  0  0  0  0  0
    9.6423    7.2990    0.0000 F   0  0  0  0  0  0  0  0  0  0  0  0
   11.1423    4.7010    0.0000 F   0  0  0  0  0  0  0  0  0  0  0  0
   11.6913    6.7500    0.0000 C   0  0  0  0  0  0  0  0  0  0  0  0
   12.4413    5.4510    0.0000 F   0  0  0  0  0  0  0  0  0  0  0  0
   10.9413    8.0490    0.0000 F   0  0  0  0  0  0  0  0  0  0  0  0
   12.9904    7.5000    0.0000 C   0  0  0  0  0  0  0  0  0  0  0  0
   14.2894    8.2500    0.0000 F   0  0  0  0  0  0  0  0  0  0  0  0
   12.2404    8.7990    0.0000 F   0  0  0  0  0  0  0  0  0  0  0  0
   13.7404    6.2010    0.0000 F   0  0  0  0  0  0  0  0  0  0  0  0
  1  2  2  0
  2  3  1  0
  2  4  1  0
  4  5  1  0
  4  6  1  0
  4  7  1  0
  7  8  1  0
  7  9  1  0
  7 10  1  0
 10 11  1  0
 10 12  1  0
 10 13  1  0
 13 14  1  0
 13 15  1  0
 13 16  1  0
 16 17  1  0
 16 18  1  0
 16 19  1  0
 19 20  1  0
 19 21  1  0
 19 22  1  0
 22 23  1  0
 22 24  1  0
 22 25  1  0
 25 26  1  0
 25 27  1  0
 25 28  1  0
 28 29  1  0
 28 30  1  0
 28 31  1  0
 31 32  1  0
 31 33  1  0
 31 34  1  0
M  END
$$$$

     RDKit          2D

 21 20  0  0  0  0  0  0  0  0999 V2000
    0.0000    0.0000    0.0000 C   0  0  0  0  0  0  0  0  0  0  0  0
    1.2990    0.7500    0.0000 N   0  0  0  0  0  0  0  0  0  0  0  0
    2.5981    1.5000    0.0000 C   0  0  0  0  0  0  0  0  0  0  0  0
    2.0490   -0.5490    0.0000 C   0  0  0  0  0  0  0  0  0  0  0  0
    3.5490   -0.5490    0.0000 C   0  0  0  0  0  0  0  0  0  0  0  0
    4.2990   -1.8481    0.0000 C   0  0  0  0  0  0  0  0  0  0  0  0
    5.7990   -1.8481    0.0000 N   0  0  0  0  0  0  0  0  0  0  0  0
    6.5490   -3.1471    0.0000 S   0  0  0  0  0  0  0  0  0  0  0  0
    5.2500   -3.8971    0.0000 O   0  0  0  0  0  0  0  0  0  0  0  0
    7.1857   -2.6674    0.0000 O   0  0  0  0  0  0  0  0  0  0  0  0
    7.2990   -4.4462    0.0000 C   0  0  0  0  0  0  0  0  0  0  0  0
    6.0000   -5.1962    0.0000 F   0  0  0  0  0  0  0  0  0  0  0  0
    8.0490   -5.7452    0.0000 F   0  0  0  0  0  0  0  0  0  0  0  0
    8.5981   -3.6962    0.0000 C   0  0  0  0  0  0  0  0  0  0  0  0
    9.8971   -2.9462    0.0000 F   0  0  0  0  0  0  0  0  0  0  0  0
    9.3481   -4.9952    0.0000 F   0  0  0  0  0  0  0  0  0  0  0  0
    8.2520   -2.8808    0.0000 F   0  0  0  0  0  0  0  0  0  0  0  0
    0.5490    2.0490    0.0000 C   0  0  0  0  0  0  0  0  0  0  0  0
    1.2990    3.3481    0.0000 C   0  0  0  0  0  0  0  0  0  0  0  0
    2.7990    3.3481    0.0000 O   0  0  0  0  0  0  0  0  0  0  0  0
    0.5490    4.6471    0.0000 O   0  0  0  0  0  0  0  0  0  0  0  0
  1  2  1  0
  2  3  1  0
  2  4  1  0
  4  5  1  0
  5  6  1  0
  6  7  1  0
  7  8  1  0
  8  9  2  0
  8 10  2  0
  8 11  1  0
 11 12  1  0
 11 13  1  0
 11 14  1  0
 14 15  1  0
 14 16  1  0
 14 17  1  0
  2 18  1  0
 18 19  1  0
 19 20  2  0
 19 21  1  0
M  CHG  2   2   1  21  -1
M  END
$$$$

     RDKit          2D

 33 32  0  0  0  0  0  0  0  0999 V2000
    2.0490    6.5490    0.0000 O   0  0  0  0  0  0  0  0  0  0  0  0
    1.2990    5.2500    0.0000 S   0  0  0  0  0  0  0  0  0  0  0  0
    0.5490    3.9510    0.0000 O   0  0  0  0  0  0  0  0  0  0  0  0
    0.0000    6.0000    0.0000 O   0  0  0  0  0  0  0  0  0  0  0  0
    2.5981    4.5000    0.0000 C   0  0  0  0  0  0  0  0  0  0  0  0
    2.5981    3.0000    0.0000 C   0  0  0  0  0  0  0  0  0  0  0  0
    3.8971    2.2500    0.0000 C   0  0  0  0  0  0  0  0  0  0  0  0
    3.8971    0.7500    0.0000 N   0  0  0  0  0  0  0  0  0  0  0  0
    5.1962    0.0000    0.0000 S   0  0  0  0  0  0  0  0  0  0  0  0
    5.9462    1.2990    0.0000 O   0  0  0  0  0  0  0  0  0  0  0  0
    4.7164   -0.6366    0.0000 O   0  0  0  0  0  0  0  0  0  0  0  0
    6.4952   -0.7500    0.0000 C   0  0  0  0  0  0  0  0  0  0  0  0
    7.2452    0.5490    0.0000 F   0  0  0  0  0  0  0  0  0  0  0  0
    7.7942   -1.5000    0.0000 F   0  0  0  0  0  0  0  0  0  0  0  0
    5.7452   -2.0490    0.0000 C   0  0  0  0  0  0  0  0  0  0  0  0
    4.9299   -1.7030    0.0000 F   0  0  0  0  0  0  0  0  0  0  0  0
    7.0442   -2.7990    0.0000 F   0  0  0  0  0  0  0  0  0  0  0  0
    4.9952   -3.3481    0.0000 C   0  0  0  0  0  0  0  0  0  0  0  0
    6.2942   -4.0981    0.0000 F   0  0  0  0  0  0  0  0  0  0  0  0
    3.6962   -2.5981    0.0000 F   0  0  0  0  0  0  0  0  0  0  0  0
    4.2452   -4.6471    0.0000 C   0  0  0  0  0  0  0  0  0  0  0  0
    2.9462   -3.8971    0.0000 F   0  0  0  0  0  0  0  0  0  0  0  0
    5.5442   -5.3971    0.0000 F   0  0  0  0  0  0  0  0  0  0  0  0
    3.4952   -5.9462    0.0000 C   0  0  0  0  0  0  0  0  0  0  0  0
    2.1962   -5.1962    0.0000 F   0  0  0  0  0  0  0  0  0  0  0  0
    4.7942   -6.6962    0.0000 F   0  0  0  0  0  0  0  0  0  0  0  0
    2.7452   -7.2452    0.0000 C   0  0  0  0  0  0  0  0  0  0  0  0
    4.0442   -7.9952    0.0000 F   0  0  0  0  0  0  0  0  0  0  0  0
    1.4462   -6.4952    0.0000 F   0  0  0  0  0  0  0  0  0  0  0  0
    1.9952   -8.5442    0.0000 C   0  0  0  0  0  0  0  0  0  0  0  0
    1.2452   -9.8433    0.0000 F   0  0  0  0  0  0  0  0  0  0  0  0
    0.6962   -7.7942    0.0000 F   0  0  0  0  0  0  0  0  0  0  0  0
    3.2942   -9.2942    0.0000 F   0  0  0  0  0  0  0  0  0  0  0  0
  1  2  2  0
  2  3  2  0
  2  4  1  0
  2  5  1  0
  5  6  1  0
  6  7  1  0
  7  8  1  0
  8  9  1  0
  9 10  2  0
  9 11  2  0
  9 12  1  0
 12 13  1  0
 12 14  1  0
 12 15  1  0
 15 16  1  0
 15 17  1  0
 15 18  1  0
 18 19  1  0
 18 20  1  0
 18 21  1  0
 21 22  1  0
 21 23  1  0
 21 24  1  0
 24 25  1  0
 24 26  1  0
 24 27  1  0
 27 28  1  0
 27 29  1  0
 27 30  1  0
 30 31  1  0
 30 32  1  0
 30 33  1  0
M  END
$$$$

     RDKit          2D

 49 48  0  0  0  0  0  0  0  0999 V2000
   10.2990   -5.9462    0.0000 C   0  0  0  0  0  0  0  0  0  0  0  0
   10.2990   -4.4462    0.0000 N   0  0  0  0  0  0  0  0  0  0  0  0
   10.2990   -2.9462    0.0000 C   0  0  0  0  0  0  0  0  0  0  0  0
    8.7990   -4.4462    0.0000 C   0  0  0  0  0  0  0  0  0  0  0  0
    8.0490   -3.1471    0.0000 C   0  0  0  0  0  0  0  0  0  0  0  0
    6.5490   -3.1471    0.0000 C   0  0  0  0  0  0  0  0  0  0  0  0
    5.7990   -1.8481    0.0000 N   0  0  0  0  0  0  0  0  0  0  0  0
    4.2990   -1.8481    0.0000 C   0  0  0  0  0  0  0  0  0  0  0  0
    3.5490   -0.5490    0.0000 C   0  0  0  0  0  0  0  0  0  0  0  0
    4.1351    0.8317    0.0000 O   0  0  0  0  0  0  0  0  0  0  0  0
    2.0490   -0.5490    0.0000 O   0  0  0  0  0  0  0  0  0  0  0  0
    6.5490   -0.5490    0.0000 S   0  0  0  0  0  0  0  0  0  0  0  0
    7.8481   -1.2990    0.0000 O   0  0  0  0  0  0  0  0  0  0  0  0
    5.8152   -0.2376    0.0000 O   0  0  0  0  0  0  0  0  0  0  0  0
    7.2990    0.7500    0.0000 C   0  0  0  0  0  0  0  0  0  0  0  0
    8.5981    0.0000    0.0000 F   0  0  0  0  0  0  0  0  0  0  0  0
    8.0490    2.0490    0.0000 F   0  0  0  0  0  0  0  0  0  0  0  0
    6.0000    1.5000    0.0000 C   0  0  0  0  0  0  0  0  0  0  0  0
    5.4669    0.7926    0.0000 F   0  0  0  0  0  0  0  0  0  0  0  0
    6.7500    2.7990    0.0000 F   0  0  0  0  0  0  0  0  0  0  0  0
    4.7010    2.2500    0.0000 C   0  0  0  0  0  0  0  0  0  0  0  0
    3.7982    1.0521    0.0000 F   0  0  0  0  0  0  0  0  0  0  0  0
    5.4510    3.5490    0.0000 F   0  0  0  0  0  0  0  0  0  0  0  0
    3.4019    3.0000    0.0000 C   0  0  0  0  0  0  0  0  0  0  0  0
    2.6519    1.7010    0.0000 F   0  0  0  0  0  0  0  0  0  0  0  0
    4.1519    4.2990    0.0000 F   0  0  0  0  0  0  0  0  0  0  0  0
    2.1029    3.7500    0.0000 C   0  0  0  0  0  0  0  0  0  0  0  0
    2.8529    5.0490    0.0000 F   0  0  0  0  0  0  0  0  0  0  0  0
    1.3529    2.4510    0.0000 F   0  0  0  0  0  0  0  0  0  0  0  0
    0.8038    4.5000    0.0000 C   0  0  0  0  0  0  0  0  0  0  0  0
    0.0538    3.2010    0.0000 F   0  0  0  0  0  0  0  0  0  0  0  0
    1.5538    5.7990    0.0000 F   0  0  0  0  0  0  0  0  0  0  0  0
   -0.4952    5.2500    0.0000 C   0  0  0  0  0  0  0  0  0  0  0  0
   -1.2452    3.9510    0.0000 F   0  0  0  0  0  0  0  0  0  0  0  0
    0.2548    6.5490    0.0000 F   0  0  0  0  0  0  0  0  0  0  0  0
   -1.7942    6.0000    0.0000 C   0  0  0  0  0  0  0  0  0  0  0  0
   -1.0442    7.2990    0.0000 F   0  0  0  0  0  0  0  0  0  0  0  0
   -2.5442    4.7010    0.0000 F   0  0  0  0  0  0  0  0  0  0  0  0
   -3.0933    6.7500    0.0000 C   0  0  0  0  0  0  0  0  0  0  0  0
   -4.3923    7.5000    0.0000 F   0  0  0  0  0  0  0  0  0  0  0  0
   -3.8433    5.4510    0.0000 F   0  0  0  0  0  0  0  0  0  0  0  0
   -2.3433    8.0490    0.0000 F   0  0  0  0  0  0  0  0  0  0  0  0
   11.7990   -4.4462    0.0000 C   0  0  0  0  0  0  0  0  0  0  0  0
   12.5490   -3.1471    0.0000 C   0  0  0  0  0  0  0  0  0  0  0  0
   14.0490   -3.1471    0.0000 C   0  0  0  0  0  0  0  0  0  0  0  0
   14.7990   -1.8481    0.0000 S   0  0  0  0  0  0  0  0  0  0  0  0
   16.0981   -2.5981    0.0000 O   0  0  0  0  0  0  0  0  0  0  0  0
   13.5000   -1.0981    0.0000 O   0  0  0  0  0  0  0  0  0  0  0  0
   15.5490   -0.5490    0.0000 O   0  0  0  0  0  0  0  0  0  0  0  0
  1  2  1  0
  2  3  1  0
  2  4  1  0
  4  5  1  0
  5  6  1  0
  6  7  1  0
  7  8  1  0
  8  9  1  0
  9 10  2  0
  9 11  1  0
  7 12  1  0
 12 13  2  0
 12 14  2  0
 12 15  1  0
 15 16  1  0
 15 17  1  0
 15 18  1  0
 18 19  1  0
 18 20  1  0
 18 21  1  0
 21 22  1  0
 21 23  1  0
 21 24  1  0
 24 25  1  0
 24 26  1  0
 24 27  1  0
 27 28  1  0
 27 29  1  0
 27 30  1  0
 30 31  1  0
 30 32  1  0
 30 33  1  0
 33 34  1  0
 33 35  1  0
 33 36  1  0
 36 37  1  0
 36 38  1  0
 36 39  1  0
 39 40  1  0
 39 41  1  0
 39 42  1  0
  2 43  1  0
 43 44  1  0
 44 45  1  0
 45 46  1  0
 46 47  2  0
 46 48  2  0
 46 49  1  0
M  CHG  2   2   1  49  -1
M  END
$$$$

     RDKit          2D

 43 42  0  0  0  0  0  0  0  0999 V2000
   10.2990   -5.9462    0.0000 C   0  0  0  0  0  0  0  0  0  0  0  0
   10.2990   -4.4462    0.0000 N   0  0  0  0  0  0  0  0  0  0  0  0
   10.2990   -2.9462    0.0000 C   0  0  0  0  0  0  0  0  0  0  0  0
    8.7990   -4.4462    0.0000 C   0  0  0  0  0  0  0  0  0  0  0  0
    8.0490   -3.1471    0.0000 C   0  0  0  0  0  0  0  0  0  0  0  0
    6.5490   -3.1471    0.0000 C   0  0  0  0  0  0  0  0  0  0  0  0
    5.7990   -1.8481    0.0000 N   0  0  0  0  0  0  0  0  0  0  0  0
    4.2990   -1.8481    0.0000 C   0  0  0  0  0  0  0  0  0  0  0  0
    3.5490   -0.5490    0.0000 C   0  0  0  0  0  0  0  0  0  0  0  0
    4.1351    0.8317    0.0000 O   0  0  0  0  0  0  0  0  0  0  0  0
    2.0490   -0.5490    0.0000 O   0  0  0  0  0  0  0  0  0  0  0  0
    6.5490   -0.5490    0.0000 S   0  0  0  0  0  0  0  0  0  0  0  0
    7.8481   -1.2990    0.0000 O   0  0  0  0  0  0  0  0  0  0  0  0
    5.8152   -0.2376    0.0000 O   0  0  0  0  0  0  0  0  0  0  0  0
    7.2990    0.7500    0.0000 C   0  0  0  0  0  0  0  0  0  0  0  0
    8.5981    0.0000    0.0000 F   0  0  0  0  0  0  0  0  0  0  0  0
    8.0490    2.0490    0.0000 F   0  0  0  0  0  0  0  0  0  0  0  0
    6.0000    1.5000    0.0000 C   0  0  0  0  0  0  0  0  0  0  0  0
    6.7500    2.7990    0.0000 F   0  0  0  0  0  0  0  0  0  0  0  0
    5.4669    0.7926    0.0000 F   0  0  0  0  0  0  0  0  0  0  0  0
    4.7010    2.2500    0.0000 C   0  0  0  0  0  0  0  0  0  0  0  0
    5.4510    3.5490    0.0000 F   0  0  0  0  0  0  0  0  0  0  0  0
    3.7982    1.0521    0.0000 F   0  0  0  0  0  0  0  0  0  0  0  0
    3.4019    3.0000    0.0000 C   0  0  0  0  0  0  0  0  0  0  0  0
    4.1519    4.2990    0.0000 F   0  0  0  0  0  0  0  0  0  0  0  0
    2.6519    1.7010    0.0000 F   0  0  0  0  0  0  0  0  0  0  0  0
    2.1029    3.7500    0.0000 C   0  0  0  0  0  0  0  0  0  0  0  0
    2.8529    5.0490    0.0000 F   0  0  0  0  0  0  0  0  0  0  0  0
    1.3529    2.4510    0.0000 F   0  0  0  0  0  0  0  0  0  0  0  0
    0.8038    4.5000    0.0000 C   0  0  0  0  0  0  0  0  0  0  0  0
    1.5538    5.7990    0.0000 F   0  0  0  0  0  0  0  0  0  0  0  0
    0.0538    3.2010    0.0000 F   0  0  0  0  0  0  0  0  0  0  0  0
   -0.4952    5.2500    0.0000 C   0  0  0  0  0  0  0  0  0  0  0  0
   -1.7942    6.0000    0.0000 F   0  0  0  0  0  0  0  0  0  0  0  0
    0.2548    6.5490    0.0000 F   0  0  0  0  0  0  0  0  0  0  0  0
   -1.2452    3.9510    0.0000 F   0  0  0  0  0  0  0  0  0  0  0  0
   11.7990   -4.4462    0.0000 C   0  0  0  0  0  0  0  0  0  0  0  0
   12.5490   -3.1471    0.0000 C   0  0  0  0  0  0  0  0  0  0  0  0
   14.0490   -3.1471    0.0000 C   0  0  0  0  0  0  0  0  0  0  0  0
   14.7990   -1.8481    0.0000 S   0  0  0  0  0  0  0  0  0  0  0  0
   16.0981   -2.5981    0.0000 O   0  0  0  0  0  0  0  0  0  0  0  0
   13.5000   -1.0981    0.0000 O   0  0  0  0  0  0  0  0  0  0  0  0
   15.5490   -0.5490    0.0000 O   0  0  0  0  0  0  0  0  0  0  0  0
  1  2  1  0
  2  3  1  0
  2  4  1  0
  4  5  1  0
  5  6  1  0
  6  7  1  0
  7  8  1  0
  8  9  1  0
  9 10  2  0
  9 11  1  0
  7 12  1  0
 12 13  2  0
 12 14  2  0
 12 15  1  0
 15 16  1  0
 15 17  1  0
 15 18  1  0
 18 19  1  0
 18 20  1  0
 18 21  1  0
 21 22  1  0
 21 23  1  0
 21 24  1  0
 24 25  1  0
 24 26  1  0
 24 27  1  0
 27 28  1  0
 27 29  1  0
 27 30  1  0
 30 31  1  0
 30 32  1  0
 30 33  1  0
 33 34  1  0
 33 35  1  0
 33 36  1  0
  2 37  1  0
 37 38  1  0
 38 39  1  0
 39 40  1  0
 40 41  2  0
 40 42  2  0
 40 43  1  0
M  CHG  2   2   1  43  -1
M  END
$$$$

     RDKit          2D

 51 50  0  0  0  0  0  0  0  0999 V2000
    7.0981    4.0981    0.0000 C   0  0  0  0  0  0  0  0  0  0  0  0
    5.7990    3.3481    0.0000 N   0  0  0  0  0  0  0  0  0  0  0  0
    4.5000    2.5981    0.0000 C   0  0  0  0  0  0  0  0  0  0  0  0
    6.5490    2.0490    0.0000 C   0  0  0  0  0  0  0  0  0  0  0  0
    5.7990    0.7500    0.0000 C   0  0  0  0  0  0  0  0  0  0  0  0
    6.5490   -0.5490    0.0000 C   0  0  0  0  0  0  0  0  0  0  0  0
    5.7990   -1.8481    0.0000 N   0  0  0  0  0  0  0  0  0  0  0  0
    6.5490   -3.1471    0.0000 S   0  0  0  0  0  0  0  0  0  0  0  0
    7.8481   -2.3971    0.0000 O   0  0  0  0  0  0  0  0  0  0  0  0
    5.8152   -3.4586    0.0000 O   0  0  0  0  0  0  0  0  0  0  0  0
    7.2990   -4.4462    0.0000 C   0  0  0  0  0  0  0  0  0  0  0  0
    8.5981   -3.6962    0.0000 F   0  0  0  0  0  0  0  0  0  0  0  0
    8.0490   -5.7452    0.0000 F   0  0  0  0  0  0  0  0  0  0  0  0
    6.0000   -5.1962    0.0000 C   0  0  0  0  0  0  0  0  0  0  0  0
    5.4669   -4.4888    0.0000 F   0  0  0  0  0  0  0  0  0  0  0  0
    6.7500   -6.4952    0.0000 F   0  0  0  0  0  0  0  0  0  0  0  0
    4.7010   -5.9462    0.0000 C   0  0  0  0  0  0  0  0  0  0  0  0
    5.4510   -7.2452    0.0000 F   0  0  0  0  0  0  0  0  0  0  0  0
    3.9510   -4.6471    0.0000 F   0  0  0  0  0  0  0  0  0  0  0  0
    3.4019   -6.6962    0.0000 C   0  0  0  0  0  0  0  0  0  0  0  0
    2.6519   -5.3971    0.0000 F   0  0  0  0  0  0  0  0  0  0  0  0
    4.1519   -7.9952    0.0000 F   0  0  0  0  0  0  0  0  0  0  0  0
    2.1029   -7.4462    0.0000 C   0  0  0  0  0  0  0  0  0  0  0  0
    2.8529   -8.7452    0.0000 F   0  0  0  0  0  0  0  0  0  0  0  0
    1.3529   -6.1471    0.0000 F   0  0  0  0  0  0  0  0  0  0  0  0
    0.8038   -8.1962    0.0000 C   0  0  0  0  0  0  0  0  0  0  0  0
    0.0538   -6.8971    0.0000 F   0  0  0  0  0  0  0  0  0  0  0  0
    1.5538   -9.4952    0.0000 F   0  0  0  0  0  0  0  0  0  0  0  0
   -0.4952   -8.9462    0.0000 C   0  0  0  0  0  0  0  0  0  0  0  0
   -1.2452   -7.6471    0.0000 F   0  0  0  0  0  0  0  0  0  0  0  0
    0.2548  -10.2452    0.0000 F   0  0  0  0  0  0  0  0  0  0  0  0
   -1.7942   -9.6962    0.0000 C   0  0  0  0  0  0  0  0  0  0  0  0
   -1.0442  -10.9952    0.0000 F   0  0  0  0  0  0  0  0  0  0  0  0
   -2.5442   -8.3971    0.0000 F   0  0  0  0  0  0  0  0  0  0  0  0
   -3.0933  -10.4462    0.0000 C   0  0  0  0  0  0  0  0  0  0  0  0
   -3.8433   -9.1471    0.0000 F   0  0  0  0  0  0  0  0  0  0  0  0
   -2.3433  -11.7452    0.0000 F   0  0  0  0  0  0  0  0  0  0  0  0
   -4.3923  -11.1962    0.0000 C   0  0  0  0  0  0  0  0  0  0  0  0
   -3.6423  -12.4952    0.0000 F   0  0  0  0  0  0  0  0  0  0  0  0
   -5.1423   -9.8971    0.0000 F   0  0  0  0  0  0  0  0  0  0  0  0
   -5.6913  -11.9462    0.0000 C   0  0  0  0  0  0  0  0  0  0  0  0
   -6.4413  -10.6471    0.0000 F   0  0  0  0  0  0  0  0  0  0  0  0
   -4.9413  -13.2452    0.0000 F   0  0  0  0  0  0  0  0  0  0  0  0
   -6.9904  -12.6962    0.0000 C   0  0  0  0  0  0  0  0  0  0  0  0
   -8.2894  -13.4462    0.0000 F   0  0  0  0  0  0  0  0  0  0  0  0
   -6.2404  -13.9952    0.0000 F   0  0  0  0  0  0  0  0  0  0  0  0
   -7.7404  -11.3971    0.0000 F   0  0  0  0  0  0  0  0  0  0  0  0
    5.0490    4.6471    0.0000 C   0  0  0  0  0  0  0  0  0  0  0  0
    3.5490    4.6471    0.0000 C   0  0  0  0  0  0  0  0  0  0  0  0
    2.7990    3.3481    0.0000 O   0  0  0  0  0  0  0  0  0  0  0  0
    2.7990    5.9462    0.0000 O   0  0  0  0  0  0  0  0  0  0  0  0
  1  2  1  0
  2  3  1  0
  2  4  1  0
  4  5  1  0
  5  6  1  0
  6  7  1  0
  7  8  1  0
  8  9  2  0
  8 10  2  0
  8 11  1  0
 11 12  1  0
 11 13  1  0
 11 14  1  0
 14 15  1  0
 14 16  1  0
 14 17  1  0
 17 18  1  0
 17 19  1  0
 17 20  1  0
 20 21  1  0
 20 22  1  0
 20 23  1  0
 23 24  1  0
 23 25  1  0
 23 26  1  0
 26 27  1  0
 26 28  1  0
 26 29  1  0
 29 30  1  0
 29 31  1  0
 29 32  1  0
 32 33  1  0
 32 34  1  0
 32 35  1  0
 35 36  1  0
 35 37  1  0
 35 38  1  0
 38 39  1  0
 38 40  1  0
 38 41  1  0
 41 42  1  0
 41 43  1  0
 41 44  1  0
 44 45  1  0
 44 46  1  0
 44 47  1  0
  2 48  1  0
 48 49  1  0
 49 50  2  0
 49 51  1  0
M  CHG  2   2   1  51  -1
M  END
$$$$

     RDKit          2D

 40 39  0  0  0  0  0  0  0  0999 V2000
   10.2990   -5.9462    0.0000 C   0  0  0  0  0  0  0  0  0  0  0  0
   10.2990   -4.4462    0.0000 N   0  0  0  0  0  0  0  0  0  0  0  0
   10.2990   -2.9462    0.0000 C   0  0  0  0  0  0  0  0  0  0  0  0
    8.7990   -4.4462    0.0000 C   0  0  0  0  0  0  0  0  0  0  0  0
    8.0490   -3.1471    0.0000 C   0  0  0  0  0  0  0  0  0  0  0  0
    6.5490   -3.1471    0.0000 C   0  0  0  0  0  0  0  0  0  0  0  0
    5.7990   -1.8481    0.0000 N   0  0  0  0  0  0  0  0  0  0  0  0
    4.2990   -1.8481    0.0000 C   0  0  0  0  0  0  0  0  0  0  0  0
    3.5490   -0.5490    0.0000 C   0  0  0  0  0  0  0  0  0  0  0  0
    4.1351    0.8317    0.0000 O   0  0  0  0  0  0  0  0  0  0  0  0
    2.0490   -0.5490    0.0000 O   0  0  0  0  0  0  0  0  0  0  0  0
    6.5490   -0.5490    0.0000 S   0  0  0  0  0  0  0  0  0  0  0  0
    7.8481   -1.2990    0.0000 O   0  0  0  0  0  0  0  0  0  0  0  0
    5.8152   -0.2376    0.0000 O   0  0  0  0  0  0  0  0  0  0  0  0
    7.2990    0.7500    0.0000 C   0  0  0  0  0  0  0  0  0  0  0  0
    8.5981    0.0000    0.0000 F   0  0  0  0  0  0  0  0  0  0  0  0
    8.0490    2.0490    0.0000 F   0  0  0  0  0  0  0  0  0  0  0  0
    6.0000    1.5000    0.0000 C   0  0  0  0  0  0  0  0  0  0  0  0
    6.7500    2.7990    0.0000 F   0  0  0  0  0  0  0  0  0  0  0  0
    5.4669    0.7926    0.0000 F   0  0  0  0  0  0  0  0  0  0  0  0
    4.7010    2.2500    0.0000 C   0  0  0  0  0  0  0  0  0  0  0  0
    5.4510    3.5490    0.0000 F   0  0  0  0  0  0  0  0  0  0  0  0
    3.7982    1.0521    0.0000 F   0  0  0  0  0  0  0  0  0  0  0  0
    3.4019    3.0000    0.0000 C   0  0  0  0  0  0  0  0  0  0  0  0
    4.1519    4.2990    0.0000 F   0  0  0  0  0  0  0  0  0  0  0  0
    2.6519    1.7010    0.0000 F   0  0  0  0  0  0  0  0  0  0  0  0
    2.1029    3.7500    0.0000 C   0  0  0  0  0  0  0  0  0  0  0  0
    1.3529    2.4510    0.0000 F   0  0  0  0  0  0  0  0  0  0  0  0
    2.8529    5.0490    0.0000 F   0  0  0  0  0  0  0  0  0  0  0  0
    0.8038    4.5000    0.0000 C   0  0  0  0  0  0  0  0  0  0  0  0
    0.0538    3.2010    0.0000 F   0  0  0  0  0  0  0  0  0  0  0  0
    1.5538    5.7990    0.0000 F   0  0  0  0  0  0  0  0  0  0  0  0
   -0.4952    5.2500    0.0000 C   0  0  0  0  0  0  0  0  0  0  0  0
   -1.7942    6.0000    0.0000 F   0  0  0  0  0  0  0  0  0  0  0  0
    0.2548    6.5490    0.0000 F   0  0  0  0  0  0  0  0  0  0  0  0
   -1.2452    3.9510    0.0000 F   0  0  0  0  0  0  0  0  0  0  0  0
   11.7990   -4.4462    0.0000 C   0  0  0  0  0  0  0  0  0  0  0  0
   12.5490   -3.1471    0.0000 C   0  0  0  0  0  0  0  0  0  0  0  0
   11.7990   -1.8481    0.0000 O   0  0  0  0  0  0  0  0  0  0  0  0
   14.0490   -3.1471    0.0000 O   0  0  0  0  0  0  0  0  0  0  0  0
  1  2  1  0
  2  3  1  0
  2  4  1  0
  4  5  1  0
  5  6  1  0
  6  7  1  0
  7  8  1  0
  8  9  1  0
  9 10  2  0
  9 11  1  0
  7 12  1  0
 12 13  2  0
 12 14  2  0
 12 15  1  0
 15 16  1  0
 15 17  1  0
 15 18  1  0
 18 19  1  0
 18 20  1  0
 18 21  1  0
 21 22  1  0
 21 23  1  0
 21 24  1  0
 24 25  1  0
 24 26  1  0
 24 27  1  0
 27 28  1  0
 27 29  1  0
 27 30  1  0
 30 31  1  0
 30 32  1  0
 30 33  1  0
 33 34  1  0
 33 35  1  0
 33 36  1  0
  2 37  1  0
 37 38  1  0
 38 39  2  0
 38 40  1  0
M  CHG  2   2   1  40  -1
M  END
$$$$

     RDKit          2D

 40 39  0  0  0  0  0  0  0  0999 V2000
    0.0000    0.0000    0.0000 C   0  0  0  0  0  0  0  0  0  0  0  0
    1.2990    0.7500    0.0000 N   0  0  0  0  0  0  0  0  0  0  0  0
    2.5981   -0.0000    0.0000 C   0  0  0  0  0  0  0  0  0  0  0  0
    3.8971    0.7500    0.0000 C   0  0  0  0  0  0  0  0  0  0  0  0
    5.1962   -0.0000    0.0000 C   0  0  0  0  0  0  0  0  0  0  0  0
    6.4952    0.7500    0.0000 N   0  0  0  0  0  0  0  0  0  0  0  0
    5.7452    2.0490    0.0000 C   0  0  0  0  0  0  0  0  0  0  0  0
    7.2452   -0.5490    0.0000 C   0  0  0  0  0  0  0  0  0  0  0  0
    7.7942    1.5000    0.0000 C   0  0  0  0  0  0  0  0  0  0  0  0
    7.7942    3.0000    0.0000 C   0  0  0  0  0  0  0  0  0  0  0  0
    9.0933    3.7500    0.0000 C   0  0  0  0  0  0  0  0  0  0  0  0
    9.0933    5.2500    0.0000 S   0  0  0  0  0  0  0  0  0  0  0  0
   10.5933    5.2500    0.0000 O   0  0  0  0  0  0  0  0  0  0  0  0
    7.5933    5.2500    0.0000 O   0  0  0  0  0  0  0  0  0  0  0  0
    9.0933    6.7500    0.0000 O   0  0  0  0  0  0  0  0  0  0  0  0
    1.2990    2.2500    0.0000 S   0  0  0  0  0  0  0  0  0  0  0  0
    0.5078    2.1528    0.0000 O   0  0  0  0  0  0  0  0  0  0  0  0
    2.7990    2.2500    0.0000 O   0  0  0  0  0  0  0  0  0  0  0  0
    1.2990    3.7500    0.0000 C   0  0  0  0  0  0  0  0  0  0  0  0
    2.7990    3.7500    0.0000 F   0  0  0  0  0  0  0  0  0  0  0  0
    1.2990    5.2500    0.0000 F   0  0  0  0  0  0  0  0  0  0  0  0
   -0.2010    3.7500    0.0000 C   0  0  0  0  0  0  0  0  0  0  0  0
   -0.3089    2.8709    0.0000 F   0  0  0  0  0  0  0  0  0  0  0  0
   -0.2010    5.2500    0.0000 F   0  0  0  0  0  0  0  0  0  0  0  0
   -1.7010    3.7500    0.0000 C   0  0  0  0  0  0  0  0  0  0  0  0
   -1.7010    2.2500    0.0000 F   0  0  0  0  0  0  0  0  0  0  0  0
   -1.7010    5.2500    0.0000 F   0  0  0  0  0  0  0  0  0  0  0  0
   -3.2010    3.7500    0.0000 C   0  0  0  0  0  0  0  0  0  0  0  0
   -3.2010    5.2500    0.0000 F   0  0  0  0  0  0  0  0  0  0  0  0
   -3.2010    2.2500    0.0000 F   0  0  0  0  0  0  0  0  0  0  0  0
   -4.7010    3.7500    0.0000 C   0  0  0  0  0  0  0  0  0  0  0  0
   -4.7010    5.2500    0.0000 F   0  0  0  0  0  0  0  0  0  0  0  0
   -4.7010    2.2500    0.0000 F   0  0  0  0  0  0  0  0  0  0  0  0
   -6.2010    3.7500    0.0000 C   0  0  0  0  0  0  0  0  0  0  0  0
   -6.2010    2.2500    0.0000 F   0  0  0  0  0  0  0  0  0  0  0  0
   -6.2010    5.2500    0.0000 F   0  0  0  0  0  0  0  0  0  0  0  0
   -7.7010    3.7500    0.0000 C   0  0  0  0  0  0  0  0  0  0  0  0
   -9.2010    3.7500    0.0000 F   0  0  0  0  0  0  0  0  0  0  0  0
   -7.7010    5.2500    0.0000 F   0  0  0  0  0  0  0  0  0  0  0  0
   -7.7010    2.2500    0.0000 F   0  0  0  0  0  0  0  0  0  0  0  0
  1  2  1  0
  2  3  1  0
  3  4  1  0
  4  5  1  0
  5  6  1  0
  6  7  1  0
  6  8  1  0
  6  9  1  0
  9 10  1  0
 10 11  1  0
 11 12  1  0
 12 13  2  0
 12 14  2  0
 12 15  1  0
  2 16  1  0
 16 17  2  0
 16 18  2  0
 16 19  1  0
 19 20  1  0
 19 21  1  0
 19 22  1  0
 22 23  1  0
 22 24  1  0
 22 25  1  0
 25 26  1  0
 25 27  1  0
 25 28  1  0
 28 29  1  0
 28 30  1  0
 28 31  1  0
 31 32  1  0
 31 33  1  0
 31 34  1  0
 34 35  1  0
 34 36  1  0
 34 37  1  0
 37 38  1  0
 37 39  1  0
 37 40  1  0
M  CHG  2   6   1  15  -1
M  END
$$$$

     RDKit          2D

 58 57  0  0  0  0  0  0  0  0999 V2000
   10.2990   -5.9462    0.0000 C   0  0  0  0  0  0  0  0  0  0  0  0
   10.2990   -4.4462    0.0000 N   0  0  0  0  0  0  0  0  0  0  0  0
   10.2990   -2.9462    0.0000 C   0  0  0  0  0  0  0  0  0  0  0  0
    8.7990   -4.4462    0.0000 C   0  0  0  0  0  0  0  0  0  0  0  0
    8.0490   -3.1471    0.0000 C   0  0  0  0  0  0  0  0  0  0  0  0
    6.5490   -3.1471    0.0000 C   0  0  0  0  0  0  0  0  0  0  0  0
    5.7990   -1.8481    0.0000 N   0  0  0  0  0  0  0  0  0  0  0  0
    4.2990   -1.8481    0.0000 C   0  0  0  0  0  0  0  0  0  0  0  0
    3.5490   -0.5490    0.0000 C   0  0  0  0  0  0  0  0  0  0  0  0
    2.0490   -0.5490    0.0000 C   0  0  0  0  0  0  0  0  0  0  0  0
    1.2990    0.7500    0.0000 S   0  0  0  0  0  0  0  0  0  0  0  0
    0.0000   -0.0000    0.0000 O   0  0  0  0  0  0  0  0  0  0  0  0
    2.6798    1.3361    0.0000 O   0  0  0  0  0  0  0  0  0  0  0  0
    0.3963    1.9479    0.0000 O   0  0  0  0  0  0  0  0  0  0  0  0
    6.5490   -0.5490    0.0000 S   0  0  0  0  0  0  0  0  0  0  0  0
    7.8481   -1.2990    0.0000 O   0  0  0  0  0  0  0  0  0  0  0  0
    5.8152   -0.2376    0.0000 O   0  0  0  0  0  0  0  0  0  0  0  0
    7.2990    0.7500    0.0000 C   0  0  0  0  0  0  0  0  0  0  0  0
    8.5981    0.0000    0.0000 F   0  0  0  0  0  0  0  0  0  0  0  0
    8.0490    2.0490    0.0000 F   0  0  0  0  0  0  0  0  0  0  0  0
    6.0000    1.5000    0.0000 C   0  0  0  0  0  0  0  0  0  0  0  0
    5.4669    0.7926    0.0000 F   0  0  0  0  0  0  0  0  0  0  0  0
    6.7500    2.7990    0.0000 F   0  0  0  0  0  0  0  0  0  0  0  0
    4.7010    2.2500    0.0000 C   0  0  0  0  0  0  0  0  0  0  0  0
    3.9510    0.9510    0.0000 F   0  0  0  0  0  0  0  0  0  0  0  0
    5.4510    3.5490    0.0000 F   0  0  0  0  0  0  0  0  0  0  0  0
    3.4019    3.0000    0.0000 C   0  0  0  0  0  0  0  0  0  0  0  0
    2.8159    1.6192    0.0000 F   0  0  0  0  0  0  0  0  0  0  0  0
    4.1519    4.2990    0.0000 F   0  0  0  0  0  0  0  0  0  0  0  0
    2.1029    3.7500    0.0000 C   0  0  0  0  0  0  0  0  0  0  0  0
    2.8529    5.0490    0.0000 F   0  0  0  0  0  0  0  0  0  0  0  0
    1.2001    2.5521    0.0000 F   0  0  0  0  0  0  0  0  0  0  0  0
    0.8038    4.5000    0.0000 C   0  0  0  0  0  0  0  0  0  0  0  0
    1.5538    5.7990    0.0000 F   0  0  0  0  0  0  0  0  0  0  0  0
    0.0538    3.2010    0.0000 F   0  0  0  0  0  0  0  0  0  0  0  0
   -0.4952    5.2500    0.0000 C   0  0  0  0  0  0  0  0  0  0  0  0
   -1.2452    3.9510    0.0000 F   0  0  0  0  0  0  0  0  0  0  0  0
    0.2548    6.5490    0.0000 F   0  0  0  0  0  0  0  0  0  0  0  0
   -1.7942    6.0000    0.0000 C   0  0  0  0  0  0  0  0  0  0  0  0
   -1.0442    7.2990    0.0000 F   0  0  0  0  0  0  0  0  0  0  0  0
   -2.5442    4.7010    0.0000 F   0  0  0  0  0  0  0  0  0  0  0  0
   -3.0933    6.7500    0.0000 C   0  0  0  0  0  0  0  0  0  0  0  0
   -3.8433    5.4510    0.0000 F   0  0  0  0  0  0  0  0  0  0  0  0
   -2.3433    8.0490    0.0000 F   0  0  0  0  0  0  0  0  0  0  0  0
   -4.3923    7.5000    0.0000 C   0  0  0  0  0  0  0  0  0  0  0  0
   -3.6423    8.7990    0.0000 F   0  0  0  0  0  0  0  0  0  0  0  0
   -5.1423    6.2010    0.0000 F   0  0  0  0  0  0  0  0  0  0  0  0
   -5.6913    8.2500    0.0000 C   0  0  0  0  0  0  0  0  0  0  0  0
   -6.9904    9.0000    0.0000 F   0  0  0  0  0  0  0  0  0  0  0  0
   -6.4413    6.9510    0.0000 F   0  0  0  0  0  0  0  0  0  0  0  0
   -4.9413    9.5490    0.0000 F   0  0  0  0  0  0  0  0  0  0  0  0
   11.7990   -4.4462    0.0000 C   0  0  0  0  0  0  0  0  0  0  0  0
   12.5490   -3.1471    0.0000 C   0  0  0  0  0  0  0  0  0  0  0  0
   14.0490   -3.1471    0.0000 C   0  0  0  0  0  0  0  0  0  0  0  0
   14.7990   -1.8481    0.0000 S   0  0  0  0  0  0  0  0  0  0  0  0
   16.0981   -2.5981    0.0000 O   0  0  0  0  0  0  0  0  0  0  0  0
   13.5000   -1.0981    0.0000 O   0  0  0  0  0  0  0  0  0  0  0  0
   15.5490   -0.5490    0.0000 O   0  0  0  0  0  0  0  0  0  0  0  0
  1  2  1  0
  2  3  1  0
  2  4  1  0
  4  5  1  0
  5  6  1  0
  6  7  1  0
  7  8  1  0
  8  9  1  0
  9 10  1  0
 10 11  1  0
 11 12  2  0
 11 13  2  0
 11 14  1  0
  7 15  1  0
 15 16  2  0
 15 17  2  0
 15 18  1  0
 18 19  1  0
 18 20  1  0
 18 21  1  0
 21 22  1  0
 21 23  1  0
 21 24  1  0
 24 25  1  0
 24 26  1  0
 24 27  1  0
 27 28  1  0
 27 29  1  0
 27 30  1  0
 30 31  1  0
 30 32  1  0
 30 33  1  0
 33 34  1  0
 33 35  1  0
 33 36  1  0
 36 37  1  0
 36 38  1  0
 36 39  1  0
 39 40  1  0
 39 41  1  0
 39 42  1  0
 42 43  1  0
 42 44  1  0
 42 45  1  0
 45 46  1  0
 45 47  1  0
 45 48  1  0
 48 49  1  0
 48 50  1  0
 48 51  1  0
  2 52  1  0
 52 53  1  0
 53 54  1  0
 54 55  1  0
 55 56  2  0
 55 57  2  0
 55 58  1  0
M  CHG  1   2   1
M  END
$$$$

     RDKit          2D

 41 41  0  0  0  0  0  0  0  0999 V2000
    3.0000    0.0000    0.0000 F   0  0  0  0  0  0  0  0  0  0  0  0
    1.5000    0.0000    0.0000 C   0  0  0  0  0  0  0  0  0  0  0  0
    0.7500   -1.2990    0.0000 C   0  0  0  0  0  0  0  0  0  0  0  0
    1.5000   -2.5981    0.0000 F   0  0  0  0  0  0  0  0  0  0  0  0
   -0.7500   -1.2990    0.0000 C   0  0  0  0  0  0  0  0  0  0  0  0
   -1.5000   -2.5981    0.0000 F   0  0  0  0  0  0  0  0  0  0  0  0
   -1.5000    0.0000    0.0000 C   0  0  0  0  0  0  0  0  0  0  0  0
   -3.0000    0.0000    0.0000 Si  0  0  0  0  0  4  0  0  0  0  0  0
   -3.0000   -1.5000    0.0000 Cl  0  0  0  0  0  0  0  0  0  0  0  0
   -3.0000    1.5000    0.0000 Cl  0  0  0  0  0  0  0  0  0  0  0  0
   -4.5000    0.0000    0.0000 C   0  0  0  0  0  0  0  0  0  0  0  0
   -5.2500   -1.2990    0.0000 C   0  0  0  0  0  0  0  0  0  0  0  0
   -6.7500   -1.2990    0.0000 C   0  0  0  0  0  0  0  0  0  0  0  0
   -6.7500   -2.7990    0.0000 F   0  0  0  0  0  0  0  0  0  0  0  0
   -6.7500    0.2010    0.0000 F   0  0  0  0  0  0  0  0  0  0  0  0
   -8.2500   -1.2990    0.0000 C   0  0  0  0  0  0  0  0  0  0  0  0
   -8.2500    0.2010    0.0000 F   0  0  0  0  0  0  0  0  0  0  0  0
   -8.2500   -2.7990    0.0000 F   0  0  0  0  0  0  0  0  0  0  0  0
   -9.7500   -1.2990    0.0000 C   0  0  0  0  0  0  0  0  0  0  0  0
   -9.7500   -2.7990    0.0000 F   0  0  0  0  0  0  0  0  0  0  0  0
   -9.7500    0.2010    0.0000 F   0  0  0  0  0  0  0  0  0  0  0  0
  -11.2500   -1.2990    0.0000 C   0  0  0  0  0  0  0  0  0  0  0  0
  -11.2500    0.2010    0.0000 F   0  0  0  0  0  0  0  0  0  0  0  0
  -11.2500   -2.7990    0.0000 F   0  0  0  0  0  0  0  0  0  0  0  0
  -12.7500   -1.2990    0.0000 C   0  0  0  0  0  0  0  0  0  0  0  0
  -12.7500   -2.7990    0.0000 F   0  0  0  0  0  0  0  0  0  0  0  0
  -12.7500    0.2010    0.0000 F   0  0  0  0  0  0  0  0  0  0  0  0
  -14.2500   -1.2990    0.0000 C   0  0  0  0  0  0  0  0  0  0  0  0
  -14.2500    0.2010    0.0000 F   0  0  0  0  0  0  0  0  0  0  0  0
  -14.2500   -2.7990    0.0000 F   0  0  0  0  0  0  0  0  0  0  0  0
  -15.7500   -1.2990    0.0000 C   0  0  0  0  0  0  0  0  0  0  0  0
  -15.7500   -2.7990    0.0000 F   0  0  0  0  0  0  0  0  0  0  0  0
  -15.7500    0.2010    0.0000 F   0  0  0  0  0  0  0  0  0  0  0  0
  -17.2500   -1.2990    0.0000 C   0  0  0  0  0  0  0  0  0  0  0  0
  -18.7500   -1.2990    0.0000 F   0  0  0  0  0  0  0  0  0  0  0  0
  -17.2500    0.2010    0.0000 F   0  0  0  0  0  0  0  0  0  0  0  0
  -17.2500   -2.7990    0.0000 F   0  0  0  0  0  0  0  0  0  0  0  0
   -0.7500    1.2990    0.0000 C   0  0  0  0  0  0  0  0  0  0  0  0
   -1.5000    2.5981    0.0000 F   0  0  0  0  0  0  0  0  0  0  0  0
    0.7500    1.2990    0.0000 C   0  0  0  0  0  0  0  0  0  0  0  0
    1.5000    2.5981    0.0000 F   0  0  0  0  0  0  0  0  0  0  0  0
  1  2  1  0
  2  3  2  0
  3  4  1  0
  3  5  1  0
  5  6  1  0
  5  7  2  0
  7  8  1  0
  8  9  1  0
  8 10  1  0
  8 11  1  0
 11 12  1  0
 12 13  1  0
 13 14  1  0
 13 15  1  0
 13 16  1  0
 16 17  1  0
 16 18  1  0
 16 19  1  0
 19 20  1  0
 19 21  1  0
 19 22  1  0
 22 23  1  0
 22 24  1  0
 22 25  1  0
 25 26  1  0
 25 27  1  0
 25 28  1  0
 28 29  1  0
 28 30  1  0
 28 31  1  0
 31 32  1  0
 31 33  1  0
 31 34  1  0
 34 35  1  0
 34 36  1  0
 34 37  1  0
  7 38  1  0
 38 39  1  0
 38 40  2  0
 40 41  1  0
 40  2  1  0
M  END
$$$$

     RDKit          2D

 36 35  0  0  0  0  0  0  0  0999 V2000
   -9.0000   10.3923    0.0000 O   0  0  0  0  0  0  0  0  0  0  0  0
   -8.2500    9.0933    0.0000 C   0  0  0  0  0  0  0  0  0  0  0  0
   -9.0000    7.7942    0.0000 O   0  0  0  0  0  0  0  0  0  0  0  0
   -6.7500    9.0933    0.0000 C   0  0  0  0  0  0  0  0  0  0  0  0
   -6.7500    7.5933    0.0000 F   0  0  0  0  0  0  0  0  0  0  0  0
   -6.7500   10.5933    0.0000 F   0  0  0  0  0  0  0  0  0  0  0  0
   -5.2500    9.0933    0.0000 O   0  0  0  0  0  0  0  0  0  0  0  0
   -4.5000    7.7942    0.0000 C   0  0  0  0  0  0  0  0  0  0  0  0
   -3.2010    8.5442    0.0000 F   0  0  0  0  0  0  0  0  0  0  0  0
   -5.7990    7.0442    0.0000 F   0  0  0  0  0  0  0  0  0  0  0  0
   -3.7500    6.4952    0.0000 C   0  0  0  0  0  0  0  0  0  0  0  0
   -5.0490    5.7452    0.0000 F   0  0  0  0  0  0  0  0  0  0  0  0
   -2.4510    7.2452    0.0000 F   0  0  0  0  0  0  0  0  0  0  0  0
   -3.0000    5.1962    0.0000 C   0  0  0  0  0  0  0  0  0  0  0  0
   -1.7010    5.9462    0.0000 F   0  0  0  0  0  0  0  0  0  0  0  0
   -4.2990    4.4462    0.0000 F   0  0  0  0  0  0  0  0  0  0  0  0
   -2.2500    3.8971    0.0000 C   0  0  0  0  0  0  0  0  0  0  0  0
   -3.5490    3.1471    0.0000 F   0  0  0  0  0  0  0  0  0  0  0  0
   -0.9510    4.6471    0.0000 F   0  0  0  0  0  0  0  0  0  0  0  0
   -1.5000    2.5981    0.0000 C   0  0  0  0  0  0  0  0  0  0  0  0
   -0.2010    3.3481    0.0000 F   0  0  0  0  0  0  0  0  0  0  0  0
   -2.7990    1.8481    0.0000 F   0  0  0  0  0  0  0  0  0  0  0  0
   -0.7500    1.2990    0.0000 C   0  0  0  0  0  0  0  0  0  0  0  0
   -2.0490    0.5490    0.0000 F   0  0  0  0  0  0  0  0  0  0  0  0
    0.5490    2.0490    0.0000 F   0  0  0  0  0  0  0  0  0  0  0  0
    0.0000    0.0000    0.0000 C   0  0  0  0  0  0  0  0  0  0  0  0
   -0.7500   -1.2990    0.0000 F   0  0  0  0  0  0  0  0  0  0  0  0
    1.5000    0.0000    0.0000 C   0  0  0  0  0  0  0  0  0  0  0  0
    2.2500    1.2990    0.0000 F   0  0  0  0  0  0  0  0  0  0  0  0
    2.2500   -1.2990    0.0000 C   0  0  0  0  0  0  0  0  0  0  0  0
    3.5490   -0.5490    0.0000 F   0  0  0  0  0  0  0  0  0  0  0  0
    0.9510   -2.0490    0.0000 F   0  0  0  0  0  0  0  0  0  0  0  0
    3.0000   -2.5981    0.0000 C   0  0  0  0  0  0  0  0  0  0  0  0
    3.7500   -3.8971    0.0000 F   0  0  0  0  0  0  0  0  0  0  0  0
    1.7010   -3.3481    0.0000 F   0  0  0  0  0  0  0  0  0  0  0  0
    4.2990   -1.8481    0.0000 F   0  0  0  0  0  0  0  0  0  0  0  0
  1  2  2  0
  2  3  1  0
  2  4  1  0
  4  5  1  0
  4  6  1  0
  4  7  1  0
  7  8  1  0
  8  9  1  0
  8 10  1  0
  8 11  1  0
 11 12  1  0
 11 13  1  0
 11 14  1  0
 14 15  1  0
 14 16  1  0
 14 17  1  0
 17 18  1  0
 17 19  1  0
 17 20  1  0
 20 21  1  0
 20 22  1  0
 20 23  1  0
 23 24  1  0
 23 25  1  0
 23 26  1  0
 26 27  1  0
 26 28  2  0
 28 29  1  0
 28 30  1  0
 30 31  1  0
 30 32  1  0
 30 33  1  0
 33 34  1  0
 33 35  1  0
 33 36  1  0
M  END
$$$$

     RDKit          2D

 51 50  0  0  0  0  0  0  0  0999 V2000
   -0.0000   -1.5000    0.0000 O   0  0  0  0  0  0  0  0  0  0  0  0
    0.0000    0.0000    0.0000 C   0  0  0  0  0  0  0  0  0  0  0  0
   -1.2990    0.7500    0.0000 O   0  0  0  0  0  0  0  0  0  0  0  0
    1.2990    0.7500    0.0000 C   0  0  0  0  0  0  0  0  0  0  0  0
    1.2990    2.2500    0.0000 F   0  0  0  0  0  0  0  0  0  0  0  0
    2.5981   -0.0000    0.0000 C   0  0  0  0  0  0  0  0  0  0  0  0
    3.3481    1.2990    0.0000 F   0  0  0  0  0  0  0  0  0  0  0  0
    1.8481   -1.2990    0.0000 F   0  0  0  0  0  0  0  0  0  0  0  0
    3.8971   -0.7500    0.0000 C   0  0  0  0  0  0  0  0  0  0  0  0
    3.1471   -2.0490    0.0000 F   0  0  0  0  0  0  0  0  0  0  0  0
    4.6471    0.5490    0.0000 F   0  0  0  0  0  0  0  0  0  0  0  0
    5.1962   -1.5000    0.0000 C   0  0  0  0  0  0  0  0  0  0  0  0
    5.9462   -0.2010    0.0000 F   0  0  0  0  0  0  0  0  0  0  0  0
    4.4462   -2.7990    0.0000 F   0  0  0  0  0  0  0  0  0  0  0  0
    6.4952   -2.2500    0.0000 C   0  0  0  0  0  0  0  0  0  0  0  0
    5.7452   -3.5490    0.0000 F   0  0  0  0  0  0  0  0  0  0  0  0
    7.2452   -0.9510    0.0000 F   0  0  0  0  0  0  0  0  0  0  0  0
    7.7942   -3.0000    0.0000 C   0  0  0  0  0  0  0  0  0  0  0  0
    8.5442   -1.7010    0.0000 F   0  0  0  0  0  0  0  0  0  0  0  0
    7.0442   -4.2990    0.0000 F   0  0  0  0  0  0  0  0  0  0  0  0
    9.0933   -3.7500    0.0000 C   0  0  0  0  0  0  0  0  0  0  0  0
    8.3433   -5.0490    0.0000 F   0  0  0  0  0  0  0  0  0  0  0  0
    9.8433   -2.4510    0.0000 F   0  0  0  0  0  0  0  0  0  0  0  0
   10.3923   -4.5000    0.0000 C   0  0  0  0  0  0  0  0  0  0  0  0
   11.1423   -3.2010    0.0000 F   0  0  0  0  0  0  0  0  0  0  0  0
    9.6423   -5.7990    0.0000 F   0  0  0  0  0  0  0  0  0  0  0  0
   11.6913   -5.2500    0.0000 C   0  0  0  0  0  0  0  0  0  0  0  0
   10.9413   -6.5490    0.0000 F   0  0  0  0  0  0  0  0  0  0  0  0
   12.4413   -3.9510    0.0000 F   0  0  0  0  0  0  0  0  0  0  0  0
   12.9904   -6.0000    0.0000 C   0  0  0  0  0  0  0  0  0  0  0  0
   13.7404   -4.7010    0.0000 F   0  0  0  0  0  0  0  0  0  0  0  0
   12.2404   -7.2990    0.0000 F   0  0  0  0  0  0  0  0  0  0  0  0
   14.2894   -6.7500    0.0000 C   0  0  0  0  0  0  0  0  0  0  0  0
   13.5394   -8.0490    0.0000 F   0  0  0  0  0  0  0  0  0  0  0  0
   15.0394   -5.4510    0.0000 F   0  0  0  0  0  0  0  0  0  0  0  0
   15.5885   -7.5000    0.0000 C   0  0  0  0  0  0  0  0  0  0  0  0
   16.3385   -6.2010    0.0000 F   0  0  0  0  0  0  0  0  0  0  0  0
   14.8385   -8.7990    0.0000 F   0  0  0  0  0  0  0  0  0  0  0  0
   16.8875   -8.2500    0.0000 C   0  0  0  0  0  0  0  0  0  0  0  0
   16.1375   -9.5490    0.0000 F   0  0  0  0  0  0  0  0  0  0  0  0
   17.6375   -6.9510    0.0000 F   0  0  0  0  0  0  0  0  0  0  0  0
   18.1865   -9.0000    0.0000 C   0  0  0  0  0  0  0  0  0  0  0  0
   18.9365   -7.7010    0.0000 F   0  0  0  0  0  0  0  0  0  0  0  0
   17.4365  -10.2990    0.0000 F   0  0  0  0  0  0  0  0  0  0  0  0
   19.4856   -9.7500    0.0000 C   0  0  0  0  0  0  0  0  0  0  0  0
   18.7356  -11.0490    0.0000 F   0  0  0  0  0  0  0  0  0  0  0  0
   20.2356   -8.4510    0.0000 F   0  0  0  0  0  0  0  0  0  0  0  0
   20.7846  -10.5000    0.0000 C   0  0  0  0  0  0  0  0  0  0  0  0
   22.0836  -11.2500    0.0000 F   0  0  0  0  0  0  0  0  0  0  0  0
   21.5346   -9.2010    0.0000 F   0  0  0  0  0  0  0  0  0  0  0  0
   20.0346  -11.7990    0.0000 F   0  0  0  0  0  0  0  0  0  0  0  0
  1  2  2  0
  2  3  1  0
  2  4  1  0
  4  5  1  0
  4  6  1  0
  6  7  1  0
  6  8  1  0
  6  9  1  0
  9 10  1  0
  9 11  1  0
  9 12  1  0
 12 13  1  0
 12 14  1  0
 12 15  1  0
 15 16  1  0
 15 17  1  0
 15 18  1  0
 18 19  1  0
 18 20  1  0
 18 21  1  0
 21 22  1  0
 21 23  1  0
 21 24  1  0
 24 25  1  0
 24 26  1  0
 24 27  1  0
 27 28  1  0
 27 29  1  0
 27 30  1  0
 30 31  1  0
 30 32  1  0
 30 33  1  0
 33 34  1  0
 33 35  1  0
 33 36  1  0
 36 37  1  0
 36 38  1  0
 36 39  1  0
 39 40  1  0
 39 41  1  0
 39 42  1  0
 42 43  1  0
 42 44  1  0
 42 45  1  0
 45 46  1  0
 45 47  1  0
 45 48  1  0
 48 49  1  0
 48 50  1  0
 48 51  1  0
M  END
$$$$

     RDKit          2D

 41 40  0  0  0  0  0  0  0  0999 V2000
   -0.0000   11.8923    0.0000 C   0  0  0  0  0  0  0  0  0  0  0  0
    1.2990   11.1423    0.0000 N   0  0  0  0  0  0  0  0  0  0  0  0
    2.5981   10.3923    0.0000 C   0  0  0  0  0  0  0  0  0  0  0  0
    2.0490   12.4413    0.0000 C   0  0  0  0  0  0  0  0  0  0  0  0
    0.5490    9.8433    0.0000 C   0  0  0  0  0  0  0  0  0  0  0  0
    1.2990    8.5442    0.0000 C   0  0  0  0  0  0  0  0  0  0  0  0
    0.5490    7.2452    0.0000 C   0  0  0  0  0  0  0  0  0  0  0  0
    1.2990    5.9462    0.0000 N   0  0  0  0  0  0  0  0  0  0  0  0
    0.5490    4.6471    0.0000 C   0  0  0  0  0  0  0  0  0  0  0  0
    1.2990    3.3481    0.0000 C   0  0  0  0  0  0  0  0  0  0  0  0
    0.5490    2.0490    0.0000 C   0  0  0  0  0  0  0  0  0  0  0  0
   -0.9510    2.0490    0.0000 O   0  0  0  0  0  0  0  0  0  0  0  0
    1.2990    0.7500    0.0000 O   0  0  0  0  0  0  0  0  0  0  0  0
    2.7990    5.9462    0.0000 S   0  0  0  0  0  0  0  0  0  0  0  0
    2.7990    7.4462    0.0000 O   0  0  0  0  0  0  0  0  0  0  0  0
    2.7019    5.1549    0.0000 O   0  0  0  0  0  0  0  0  0  0  0  0
    4.2990    5.9462    0.0000 C   0  0  0  0  0  0  0  0  0  0  0  0
    4.2990    7.4462    0.0000 F   0  0  0  0  0  0  0  0  0  0  0  0
    5.7990    5.9462    0.0000 F   0  0  0  0  0  0  0  0  0  0  0  0
    4.2990    4.4462    0.0000 C   0  0  0  0  0  0  0  0  0  0  0  0
    3.4199    4.3382    0.0000 F   0  0  0  0  0  0  0  0  0  0  0  0
    5.7990    4.4462    0.0000 F   0  0  0  0  0  0  0  0  0  0  0  0
    4.2990    2.9462    0.0000 C   0  0  0  0  0  0  0  0  0  0  0  0
    2.7990    2.9462    0.0000 F   0  0  0  0  0  0  0  0  0  0  0  0
    5.7990    2.9462    0.0000 F   0  0  0  0  0  0  0  0  0  0  0  0
    4.2990    1.4462    0.0000 C   0  0  0  0  0  0  0  0  0  0  0  0
    2.7990    1.4462    0.0000 F   0  0  0  0  0  0  0  0  0  0  0  0
    5.7990    1.4462    0.0000 F   0  0  0  0  0  0  0  0  0  0  0  0
    4.2990   -0.0538    0.0000 C   0  0  0  0  0  0  0  0  0  0  0  0
    5.7990   -0.0538    0.0000 F   0  0  0  0  0  0  0  0  0  0  0  0
    2.7990   -0.0538    0.0000 F   0  0  0  0  0  0  0  0  0  0  0  0
    4.2990   -1.5538    0.0000 C   0  0  0  0  0  0  0  0  0  0  0  0
    2.7990   -1.5538    0.0000 F   0  0  0  0  0  0  0  0  0  0  0  0
    5.7990   -1.5538    0.0000 F   0  0  0  0  0  0  0  0  0  0  0  0
    4.2990   -3.0538    0.0000 C   0  0  0  0  0  0  0  0  0  0  0  0
    5.7990   -3.0538    0.0000 F   0  0  0  0  0  0  0  0  0  0  0  0
    2.7990   -3.0538    0.0000 F   0  0  0  0  0  0  0  0  0  0  0  0
    4.2990   -4.5538    0.0000 C   0  0  0  0  0  0  0  0  0  0  0  0
    4.2990   -6.0538    0.0000 F   0  0  0  0  0  0  0  0  0  0  0  0
    2.7990   -4.5538    0.0000 F   0  0  0  0  0  0  0  0  0  0  0  0
    5.7990   -4.5538    0.0000 F   0  0  0  0  0  0  0  0  0  0  0  0
  1  2  1  0
  2  3  1  0
  2  4  1  0
  2  5  1  0
  5  6  1  0
  6  7  1  0
  7  8  1  0
  8  9  1  0
  9 10  1  0
 10 11  1  0
 11 12  2  0
 11 13  1  0
  8 14  1  0
 14 15  2  0
 14 16  2  0
 14 17  1  0
 17 18  1  0
 17 19  1  0
 17 20  1  0
 20 21  1  0
 20 22  1  0
 20 23  1  0
 23 24  1  0
 23 25  1  0
 23 26  1  0
 26 27  1  0
 26 28  1  0
 26 29  1  0
 29 30  1  0
 29 31  1  0
 29 32  1  0
 32 33  1  0
 32 34  1  0
 32 35  1  0
 35 36  1  0
 35 37  1  0
 35 38  1  0
 38 39  1  0
 38 40  1  0
 38 41  1  0
M  CHG  2   2   1  13  -1
M  END
$$$$

     RDKit          2D

 22 21  0  0  0  0  0  0  0  0999 V2000
    0.0000    0.0000    0.0000 C   0  0  0  0  0  0  0  0  0  0  0  0
    1.2990    0.7500    0.0000 N   0  0  0  0  0  0  0  0  0  0  0  0
    2.5981   -0.0000    0.0000 C   0  0  0  0  0  0  0  0  0  0  0  0
    3.8971    0.7500    0.0000 C   0  0  0  0  0  0  0  0  0  0  0  0
    5.1962   -0.0000    0.0000 C   0  0  0  0  0  0  0  0  0  0  0  0
    6.4952    0.7500    0.0000 N   0  0  0  0  0  0  0  0  0  0  0  0
    7.2452   -0.5490    0.0000 C   0  0  0  0  0  0  0  0  0  0  0  0
    5.7452    2.0490    0.0000 C   0  0  0  0  0  0  0  0  0  0  0  0
    7.7942    1.5000    0.0000 C   0  0  0  0  0  0  0  0  0  0  0  0
    1.2990    2.2500    0.0000 S   0  0  0  0  0  0  0  0  0  0  0  0
    0.5078    2.1528    0.0000 O   0  0  0  0  0  0  0  0  0  0  0  0
    2.7990    2.2500    0.0000 O   0  0  0  0  0  0  0  0  0  0  0  0
    1.2990    3.7500    0.0000 C   0  0  0  0  0  0  0  0  0  0  0  0
    2.7990    3.7500    0.0000 F   0  0  0  0  0  0  0  0  0  0  0  0
    1.2990    5.2500    0.0000 F   0  0  0  0  0  0  0  0  0  0  0  0
   -0.2010    3.7500    0.0000 C   0  0  0  0  0  0  0  0  0  0  0  0
   -0.3089    2.8709    0.0000 F   0  0  0  0  0  0  0  0  0  0  0  0
   -0.2010    5.2500    0.0000 F   0  0  0  0  0  0  0  0  0  0  0  0
   -1.7010    3.7500    0.0000 C   0  0  0  0  0  0  0  0  0  0  0  0
   -3.2010    3.7500    0.0000 F   0  0  0  0  0  0  0  0  0  0  0  0
   -1.7010    5.2500    0.0000 F   0  0  0  0  0  0  0  0  0  0  0  0
   -1.7010    2.2500    0.0000 F   0  0  0  0  0  0  0  0  0  0  0  0
  1  2  1  0
  2  3  1  0
  3  4  1  0
  4  5  1  0
  5  6  1  0
  6  7  1  0
  6  8  1  0
  6  9  1  0
  2 10  1  0
 10 11  2  0
 10 12  2  0
 10 13  1  0
 13 14  1  0
 13 15  1  0
 13 16  1  0
 16 17  1  0
 16 18  1  0
 16 19  1  0
 19 20  1  0
 19 21  1  0
 19 22  1  0
M  CHG  1   6   1
M  END
$$$$

     RDKit          2D

 49 48  0  0  0  0  0  0  0  0999 V2000
    0.0000    0.0000    0.0000 C   0  0  0  0  0  0  0  0  0  0  0  0
    1.2990    0.7500    0.0000 N   0  0  0  0  0  0  0  0  0  0  0  0
    2.5981   -0.0000    0.0000 C   0  0  0  0  0  0  0  0  0  0  0  0
    3.8971    0.7500    0.0000 C   0  0  0  0  0  0  0  0  0  0  0  0
    5.1962    0.0000    0.0000 C   0  0  0  0  0  0  0  0  0  0  0  0
    6.4952    0.7500    0.0000 N   0  0  0  0  0  0  0  0  0  0  0  0
    7.2452   -0.5490    0.0000 C   0  0  0  0  0  0  0  0  0  0  0  0
    5.7452    2.0490    0.0000 C   0  0  0  0  0  0  0  0  0  0  0  0
    7.7942    1.5000    0.0000 C   0  0  0  0  0  0  0  0  0  0  0  0
    1.2990    2.2500    0.0000 S   0  0  0  0  0  0  0  0  0  0  0  0
    0.5078    2.1528    0.0000 O   0  0  0  0  0  0  0  0  0  0  0  0
    2.7990    2.2500    0.0000 O   0  0  0  0  0  0  0  0  0  0  0  0
    1.2990    3.7500    0.0000 C   0  0  0  0  0  0  0  0  0  0  0  0
    2.7990    3.7500    0.0000 F   0  0  0  0  0  0  0  0  0  0  0  0
    1.2990    5.2500    0.0000 F   0  0  0  0  0  0  0  0  0  0  0  0
   -0.2010    3.7500    0.0000 C   0  0  0  0  0  0  0  0  0  0  0  0
   -0.3089    2.8709    0.0000 F   0  0  0  0  0  0  0  0  0  0  0  0
   -0.2010    5.2500    0.0000 F   0  0  0  0  0  0  0  0  0  0  0  0
   -1.7010    3.7500    0.0000 C   0  0  0  0  0  0  0  0  0  0  0  0
   -1.7010    2.2500    0.0000 F   0  0  0  0  0  0  0  0  0  0  0  0
   -1.7010    5.2500    0.0000 F   0  0  0  0  0  0  0  0  0  0  0  0
   -3.2010    3.7500    0.0000 C   0  0  0  0  0  0  0  0  0  0  0  0
   -3.2010    5.2500    0.0000 F   0  0  0  0  0  0  0  0  0  0  0  0
   -3.2010    2.2500    0.0000 F   0  0  0  0  0  0  0  0  0  0  0  0
   -4.7010    3.7500    0.0000 C   0  0  0  0  0  0  0  0  0  0  0  0
   -4.7010    2.2500    0.0000 F   0  0  0  0  0  0  0  0  0  0  0  0
   -4.7010    5.2500    0.0000 F   0  0  0  0  0  0  0  0  0  0  0  0
   -6.2010    3.7500    0.0000 C   0  0  0  0  0  0  0  0  0  0  0  0
   -6.2010    5.2500    0.0000 F   0  0  0  0  0  0  0  0  0  0  0  0
   -6.2010    2.2500    0.0000 F   0  0  0  0  0  0  0  0  0  0  0  0
   -7.7010    3.7500    0.0000 C   0  0  0  0  0  0  0  0  0  0  0  0
   -7.7010    5.2500    0.0000 F   0  0  0  0  0  0  0  0  0  0  0  0
   -7.7010    2.2500    0.0000 F   0  0  0  0  0  0  0  0  0  0  0  0
   -9.2010    3.7500    0.0000 C   0  0  0  0  0  0  0  0  0  0  0  0
   -9.2010    2.2500    0.0000 F   0  0  0  0  0  0  0  0  0  0  0  0
   -9.2010    5.2500    0.0000 F   0  0  0  0  0  0  0  0  0  0  0  0
  -10.7010    3.7500    0.0000 C   0  0  0  0  0  0  0  0  0  0  0  0
  -10.7010    5.2500    0.0000 F   0  0  0  0  0  0  0  0  0  0  0  0
  -10.7010    2.2500    0.0000 F   0  0  0  0  0  0  0  0  0  0  0  0
  -12.2010    3.7500    0.0000 C   0  0  0  0  0  0  0  0  0  0  0  0
  -12.2010    2.2500    0.0000 F   0  0  0  0  0  0  0  0  0  0  0  0
  -12.2010    5.2500    0.0000 F   0  0  0  0  0  0  0  0  0  0  0  0
  -13.7010    3.7500    0.0000 C   0  0  0  0  0  0  0  0  0  0  0  0
  -13.7010    5.2500    0.0000 F   0  0  0  0  0  0  0  0  0  0  0  0
  -13.7010    2.2500    0.0000 F   0  0  0  0  0  0  0  0  0  0  0  0
  -15.2010    3.7500    0.0000 C   0  0  0  0  0  0  0  0  0  0  0  0
  -16.7010    3.7500    0.0000 F   0  0  0  0  0  0  0  0  0  0  0  0
  -15.2010    2.2500    0.0000 F   0  0  0  0  0  0  0  0  0  0  0  0
  -15.2010    5.2500    0.0000 F   0  0  0  0  0  0  0  0  0  0  0  0
  1  2  1  0
  2  3  1  0
  3  4  1  0
  4  5  1  0
  5  6  1  0
  6  7  1  0
  6  8  1  0
  6  9  1  0
  2 10  1  0
 10 11  2  0
 10 12  2  0
 10 13  1  0
 13 14  1  0
 13 15  1  0
 13 16  1  0
 16 17  1  0
 16 18  1  0
 16 19  1  0
 19 20  1  0
 19 21  1  0
 19 22  1  0
 22 23  1  0
 22 24  1  0
 22 25  1  0
 25 26  1  0
 25 27  1  0
 25 28  1  0
 28 29  1  0
 28 30  1  0
 28 31  1  0
 31 32  1  0
 31 33  1  0
 31 34  1  0
 34 35  1  0
 34 36  1  0
 34 37  1  0
 37 38  1  0
 37 39  1  0
 37 40  1  0
 40 41  1  0
 40 42  1  0
 40 43  1  0
 43 44  1  0
 43 45  1  0
 43 46  1  0
 46 47  1  0
 46 48  1  0
 46 49  1  0
M  CHG  1   6   1
M  END
$$$$

     RDKit          2D

 48 47  0  0  0  0  0  0  0  0999 V2000
   -6.5490    8.3433    0.0000 O   0  0  0  0  0  0  0  0  0  0  0  0
   -5.7990    7.0442    0.0000 S   0  0  0  0  0  0  0  0  0  0  0  0
   -5.4876    6.3104    0.0000 O   0  0  0  0  0  0  0  0  0  0  0  0
   -7.0981    6.2942    0.0000 O   0  0  0  0  0  0  0  0  0  0  0  0
   -4.5000    7.7942    0.0000 C   0  0  0  0  0  0  0  0  0  0  0  0
   -5.2500    9.0933    0.0000 F   0  0  0  0  0  0  0  0  0  0  0  0
   -3.2010    8.5442    0.0000 F   0  0  0  0  0  0  0  0  0  0  0  0
   -3.7500    6.4952    0.0000 C   0  0  0  0  0  0  0  0  0  0  0  0
   -4.4574    5.9621    0.0000 F   0  0  0  0  0  0  0  0  0  0  0  0
   -2.4510    7.2452    0.0000 F   0  0  0  0  0  0  0  0  0  0  0  0
   -3.0000    5.1962    0.0000 C   0  0  0  0  0  0  0  0  0  0  0  0
   -1.7010    5.9462    0.0000 F   0  0  0  0  0  0  0  0  0  0  0  0
   -4.2990    4.4462    0.0000 F   0  0  0  0  0  0  0  0  0  0  0  0
   -2.2500    3.8971    0.0000 C   0  0  0  0  0  0  0  0  0  0  0  0
   -3.5490    3.1471    0.0000 F   0  0  0  0  0  0  0  0  0  0  0  0
   -0.9510    4.6471    0.0000 F   0  0  0  0  0  0  0  0  0  0  0  0
   -1.5000    2.5981    0.0000 C   0  0  0  0  0  0  0  0  0  0  0  0
   -0.2010    3.3481    0.0000 F   0  0  0  0  0  0  0  0  0  0  0  0
   -2.7990    1.8481    0.0000 F   0  0  0  0  0  0  0  0  0  0  0  0
   -0.7500    1.2990    0.0000 C   0  0  0  0  0  0  0  0  0  0  0  0
   -2.0490    0.5490    0.0000 F   0  0  0  0  0  0  0  0  0  0  0  0
    0.5490    2.0490    0.0000 F   0  0  0  0  0  0  0  0  0  0  0  0
    0.0000    0.0000    0.0000 C   0  0  0  0  0  0  0  0  0  0  0  0
   -0.7500   -1.2990    0.0000 F   0  0  0  0  0  0  0  0  0  0  0  0
    1.5000    0.0000    0.0000 C   0  0  0  0  0  0  0  0  0  0  0  0
    2.2500    1.2990    0.0000 F   0  0  0  0  0  0  0  0  0  0  0  0
    2.2500   -1.2990    0.0000 C   0  0  0  0  0  0  0  0  0  0  0  0
    3.5490   -0.5490    0.0000 F   0  0  0  0  0  0  0  0  0  0  0  0
    0.9510   -2.0490    0.0000 F   0  0  0  0  0  0  0  0  0  0  0  0
    3.0000   -2.5981    0.0000 C   0  0  0  0  0  0  0  0  0  0  0  0
    1.7010   -3.3481    0.0000 F   0  0  0  0  0  0  0  0  0  0  0  0
    4.2990   -1.8481    0.0000 F   0  0  0  0  0  0  0  0  0  0  0  0
    3.7500   -3.8971    0.0000 C   0  0  0  0  0  0  0  0  0  0  0  0
    5.0490   -3.1471    0.0000 F   0  0  0  0  0  0  0  0  0  0  0  0
    2.4510   -4.6471    0.0000 F   0  0  0  0  0  0  0  0  0  0  0  0
    4.5000   -5.1962    0.0000 C   0  0  0  0  0  0  0  0  0  0  0  0
    3.2010   -5.9462    0.0000 F   0  0  0  0  0  0  0  0  0  0  0  0
    5.7990   -4.4462    0.0000 F   0  0  0  0  0  0  0  0  0  0  0  0
    5.2500   -6.4952    0.0000 C   0  0  0  0  0  0  0  0  0  0  0  0
    6.5490   -5.7452    0.0000 F   0  0  0  0  0  0  0  0  0  0  0  0
    3.9510   -7.2452    0.0000 F   0  0  0  0  0  0  0  0  0  0  0  0
    6.0000   -7.7942    0.0000 C   0  0  0  0  0  0  0  0  0  0  0  0
    4.7010   -8.5442    0.0000 F   0  0  0  0  0  0  0  0  0  0  0  0
    7.2990   -7.0442    0.0000 F   0  0  0  0  0  0  0  0  0  0  0  0
    6.7500   -9.0933    0.0000 C   0  0  0  0  0  0  0  0  0  0  0  0
    7.5000  -10.3923    0.0000 F   0  0  0  0  0  0  0  0  0  0  0  0
    8.0490   -8.3433    0.0000 F   0  0  0  0  0  0  0  0  0  0  0  0
    5.4510   -9.8433    0.0000 F   0  0  0  0  0  0  0  0  0  0  0  0
  1  2  2  0
  2  3  2  0
  2  4  1  0
  2  5  1  0
  5  6  1  0
  5  7  1  0
  5  8  1  0
  8  9  1  0
  8 10  1  0
  8 11  1  0
 11 12  1  0
 11 13  1  0
 11 14  1  0
 14 15  1  0
 14 16  1  0
 14 17  1  0
 17 18  1  0
 17 19  1  0
 17 20  1  0
 20 21  1  0
 20 22  1  0
 20 23  1  0
 23 24  1  0
 23 25  2  0
 25 26  1  0
 25 27  1  0
 27 28  1  0
 27 29  1  0
 27 30  1  0
 30 31  1  0
 30 32  1  0
 30 33  1  0
 33 34  1  0
 33 35  1  0
 33 36  1  0
 36 37  1  0
 36 38  1  0
 36 39  1  0
 39 40  1  0
 39 41  1  0
 39 42  1  0
 42 43  1  0
 42 44  1  0
 42 45  1  0
 45 46  1  0
 45 47  1  0
 45 48  1  0
M  END
$$$$

     RDKit          2D

 45 44  0  0  0  0  0  0  0  0999 V2000
    0.0000    0.0000    0.0000 C   0  0  0  0  0  0  0  0  0  0  0  0
    1.2990    0.7500    0.0000 N   0  0  0  0  0  0  0  0  0  0  0  0
    2.5981    1.5000    0.0000 C   0  0  0  0  0  0  0  0  0  0  0  0
    2.0490   -0.5490    0.0000 C   0  0  0  0  0  0  0  0  0  0  0  0
    0.5490    2.0490    0.0000 C   0  0  0  0  0  0  0  0  0  0  0  0
    1.2990    3.3481    0.0000 C   0  0  0  0  0  0  0  0  0  0  0  0
    0.5490    4.6471    0.0000 N   0  0  0  0  0  0  0  0  0  0  0  0
    1.2990    5.9462    0.0000 C   0  0  0  0  0  0  0  0  0  0  0  0
    0.5490    7.2452    0.0000 C   0  0  0  0  0  0  0  0  0  0  0  0
    1.8481    7.9952    0.0000 F   0  0  0  0  0  0  0  0  0  0  0  0
   -0.7500    6.4952    0.0000 F   0  0  0  0  0  0  0  0  0  0  0  0
   -0.2010    8.5442    0.0000 C   0  0  0  0  0  0  0  0  0  0  0  0
   -1.5000    7.7942    0.0000 F   0  0  0  0  0  0  0  0  0  0  0  0
    1.0981    9.2942    0.0000 F   0  0  0  0  0  0  0  0  0  0  0  0
   -0.9510    9.8433    0.0000 C   0  0  0  0  0  0  0  0  0  0  0  0
    0.3481   10.5933    0.0000 F   0  0  0  0  0  0  0  0  0  0  0  0
   -2.2500    9.0933    0.0000 F   0  0  0  0  0  0  0  0  0  0  0  0
   -1.7010   11.1423    0.0000 C   0  0  0  0  0  0  0  0  0  0  0  0
   -3.0000   10.3923    0.0000 F   0  0  0  0  0  0  0  0  0  0  0  0
   -0.4019   11.8923    0.0000 F   0  0  0  0  0  0  0  0  0  0  0  0
   -2.4510   12.4413    0.0000 C   0  0  0  0  0  0  0  0  0  0  0  0
   -1.1519   13.1913    0.0000 F   0  0  0  0  0  0  0  0  0  0  0  0
   -3.7500   11.6913    0.0000 F   0  0  0  0  0  0  0  0  0  0  0  0
   -3.2010   13.7404    0.0000 C   0  0  0  0  0  0  0  0  0  0  0  0
   -4.5000   12.9904    0.0000 F   0  0  0  0  0  0  0  0  0  0  0  0
   -1.9019   14.4904    0.0000 F   0  0  0  0  0  0  0  0  0  0  0  0
   -3.9510   15.0394    0.0000 C   0  0  0  0  0  0  0  0  0  0  0  0
   -2.6519   15.7894    0.0000 F   0  0  0  0  0  0  0  0  0  0  0  0
   -5.2500   14.2894    0.0000 F   0  0  0  0  0  0  0  0  0  0  0  0
   -4.7010   16.3385    0.0000 C   0  0  0  0  0  0  0  0  0  0  0  0
   -6.0000   15.5885    0.0000 F   0  0  0  0  0  0  0  0  0  0  0  0
   -3.4019   17.0885    0.0000 F   0  0  0  0  0  0  0  0  0  0  0  0
   -5.4510   17.6375    0.0000 C   0  0  0  0  0  0  0  0  0  0  0  0
   -4.1519   18.3875    0.0000 F   0  0  0  0  0  0  0  0  0  0  0  0
   -6.7500   16.8875    0.0000 F   0  0  0  0  0  0  0  0  0  0  0  0
   -6.2010   18.9365    0.0000 C   0  0  0  0  0  0  0  0  0  0  0  0
   -7.5000   18.1865    0.0000 F   0  0  0  0  0  0  0  0  0  0  0  0
   -4.9019   19.6865    0.0000 F   0  0  0  0  0  0  0  0  0  0  0  0
   -6.9510   20.2356    0.0000 C   0  0  0  0  0  0  0  0  0  0  0  0
   -5.6519   20.9856    0.0000 F   0  0  0  0  0  0  0  0  0  0  0  0
   -8.2500   19.4856    0.0000 F   0  0  0  0  0  0  0  0  0  0  0  0
   -7.7010   21.5346    0.0000 C   0  0  0  0  0  0  0  0  0  0  0  0
   -8.4510   22.8336    0.0000 F   0  0  0  0  0  0  0  0  0  0  0  0
   -9.0000   20.7846    0.0000 F   0  0  0  0  0  0  0  0  0  0  0  0
   -6.4019   22.2846    0.0000 F   0  0  0  0  0  0  0  0  0  0  0  0
  1  2  1  0
  2  3  1  0
  2  4  1  0
  2  5  1  0
  5  6  1  0
  6  7  1  0
  7  8  1  0
  8  9  1  0
  9 10  1  0
  9 11  1  0
  9 12  1  0
 12 13  1  0
 12 14  1  0
 12 15  1  0
 15 16  1  0
 15 17  1  0
 15 18  1  0
 18 19  1  0
 18 20  1  0
 18 21  1  0
 21 22  1  0
 21 23  1  0
 21 24  1  0
 24 25  1  0
 24 26  1  0
 24 27  1  0
 27 28  1  0
 27 29  1  0
 27 30  1  0
 30 31  1  0
 30 32  1  0
 30 33  1  0
 33 34  1  0
 33 35  1  0
 33 36  1  0
 36 37  1  0
 36 38  1  0
 36 39  1  0
 39 40  1  0
 39 41  1  0
 39 42  1  0
 42 43  1  0
 42 44  1  0
 42 45  1  0
M  CHG  1   2   1
M  END
$$$$

     RDKit          2D

 44 43  0  0  0  0  0  0  0  0999 V2000
    0.0000    0.0000    0.0000 C   0  0  0  0  0  0  0  0  0  0  0  0
    1.2990    0.7500    0.0000 C   0  0  0  0  0  0  0  0  0  0  0  0
    2.5981   -0.0000    0.0000 C   0  0  0  0  0  0  0  0  0  0  0  0
    3.8971    0.7500    0.0000 C   0  0  0  0  0  0  0  0  0  0  0  0
    5.1962   -0.0000    0.0000 N   0  0  0  0  0  0  0  0  0  0  0  0
    4.4462   -1.2990    0.0000 C   0  0  0  0  0  0  0  0  0  0  0  0
    5.9462    1.2990    0.0000 C   0  0  0  0  0  0  0  0  0  0  0  0
    6.4952   -0.7500    0.0000 C   0  0  0  0  0  0  0  0  0  0  0  0
    6.4952   -2.2500    0.0000 C   0  0  0  0  0  0  0  0  0  0  0  0
    7.9952   -2.2500    0.0000 F   0  0  0  0  0  0  0  0  0  0  0  0
    4.9952   -2.2500    0.0000 F   0  0  0  0  0  0  0  0  0  0  0  0
    6.4952   -3.7500    0.0000 C   0  0  0  0  0  0  0  0  0  0  0  0
    4.9952   -3.7500    0.0000 F   0  0  0  0  0  0  0  0  0  0  0  0
    7.9952   -3.7500    0.0000 F   0  0  0  0  0  0  0  0  0  0  0  0
    6.4952   -5.2500    0.0000 C   0  0  0  0  0  0  0  0  0  0  0  0
    7.9952   -5.2500    0.0000 F   0  0  0  0  0  0  0  0  0  0  0  0
    4.9952   -5.2500    0.0000 F   0  0  0  0  0  0  0  0  0  0  0  0
    6.4952   -6.7500    0.0000 C   0  0  0  0  0  0  0  0  0  0  0  0
    4.9952   -6.7500    0.0000 F   0  0  0  0  0  0  0  0  0  0  0  0
    7.9952   -6.7500    0.0000 F   0  0  0  0  0  0  0  0  0  0  0  0
    6.4952   -8.2500    0.0000 C   0  0  0  0  0  0  0  0  0  0  0  0
    7.9952   -8.2500    0.0000 F   0  0  0  0  0  0  0  0  0  0  0  0
    4.9952   -8.2500    0.0000 F   0  0  0  0  0  0  0  0  0  0  0  0
    6.4952   -9.7500    0.0000 C   0  0  0  0  0  0  0  0  0  0  0  0
    4.9952   -9.7500    0.0000 F   0  0  0  0  0  0  0  0  0  0  0  0
    7.9952   -9.7500    0.0000 F   0  0  0  0  0  0  0  0  0  0  0  0
    6.4952  -11.2500    0.0000 C   0  0  0  0  0  0  0  0  0  0  0  0
    4.9952  -11.2500    0.0000 F   0  0  0  0  0  0  0  0  0  0  0  0
    7.9952  -11.2500    0.0000 F   0  0  0  0  0  0  0  0  0  0  0  0
    6.4952  -12.7500    0.0000 C   0  0  0  0  0  0  0  0  0  0  0  0
    7.9952  -12.7500    0.0000 F   0  0  0  0  0  0  0  0  0  0  0  0
    4.9952  -12.7500    0.0000 F   0  0  0  0  0  0  0  0  0  0  0  0
    6.4952  -14.2500    0.0000 C   0  0  0  0  0  0  0  0  0  0  0  0
    4.9952  -14.2500    0.0000 F   0  0  0  0  0  0  0  0  0  0  0  0
    7.9952  -14.2500    0.0000 F   0  0  0  0  0  0  0  0  0  0  0  0
    6.4952  -15.7500    0.0000 C   0  0  0  0  0  0  0  0  0  0  0  0
    7.9952  -15.7500    0.0000 F   0  0  0  0  0  0  0  0  0  0  0  0
    4.9952  -15.7500    0.0000 F   0  0  0  0  0  0  0  0  0  0  0  0
    6.4952  -17.2500    0.0000 C   0  0  0  0  0  0  0  0  0  0  0  0
    4.9952  -17.2500    0.0000 F   0  0  0  0  0  0  0  0  0  0  0  0
    7.9952  -17.2500    0.0000 F   0  0  0  0  0  0  0  0  0  0  0  0
    6.4952  -18.7500    0.0000 C   0  0  0  0  0  0  0  0  0  0  0  0
    5.1962  -19.5000    0.0000 F   0  0  0  0  0  0  0  0  0  0  0  0
    7.7942  -19.5000    0.0000 F   0  0  0  0  0  0  0  0  0  0  0  0
  1  2  1  0
  2  3  1  0
  3  4  1  0
  4  5  1  0
  5  6  1  0
  5  7  1  0
  5  8  1  0
  8  9  1  0
  9 10  1  0
  9 11  1  0
  9 12  1  0
 12 13  1  0
 12 14  1  0
 12 15  1  0
 15 16  1  0
 15 17  1  0
 15 18  1  0
 18 19  1  0
 18 20  1  0
 18 21  1  0
 21 22  1  0
 21 23  1  0
 21 24  1  0
 24 25  1  0
 24 26  1  0
 24 27  1  0
 27 28  1  0
 27 29  1  0
 27 30  1  0
 30 31  1  0
 30 32  1  0
 30 33  1  0
 33 34  1  0
 33 35  1  0
 33 36  1  0
 36 37  1  0
 36 38  1  0
 36 39  1  0
 39 40  1  0
 39 41  1  0
 39 42  1  0
 42 43  1  0
 42 44  1  0
M  CHG  1   5   1
M  END
$$$$

     RDKit          2D

 23 22  0  0  0  0  0  0  0  0999 V2000
   -1.5000   -1.5000    0.0000 O   0  0  0  0  0  0  0  0  0  0  0  0
    0.0000   -1.5000    0.0000 S   0  0  0  0  0  0  0  0  0  0  0  0
    0.7912   -1.5972    0.0000 O   0  0  0  0  0  0  0  0  0  0  0  0
   -0.0000   -3.0000    0.0000 O   0  0  0  0  0  0  0  0  0  0  0  0
    0.0000    0.0000    0.0000 C   0  0  0  0  0  0  0  0  0  0  0  0
   -1.5000    0.0000    0.0000 F   0  0  0  0  0  0  0  0  0  0  0  0
    0.0000    1.5000    0.0000 F   0  0  0  0  0  0  0  0  0  0  0  0
    1.5000    0.0000    0.0000 C   0  0  0  0  0  0  0  0  0  0  0  0
    1.5000    1.5000    0.0000 Cl  0  0  0  0  0  0  0  0  0  0  0  0
    1.6080   -0.8791    0.0000 Cl  0  0  0  0  0  0  0  0  0  0  0  0
    3.0000    0.0000    0.0000 C   0  0  0  0  0  0  0  0  0  0  0  0
    3.0000   -1.5000    0.0000 F   0  0  0  0  0  0  0  0  0  0  0  0
    3.0000    1.5000    0.0000 F   0  0  0  0  0  0  0  0  0  0  0  0
    4.5000    0.0000    0.0000 C   0  0  0  0  0  0  0  0  0  0  0  0
    4.5000    1.5000    0.0000 F   0  0  0  0  0  0  0  0  0  0  0  0
    4.5000   -1.5000    0.0000 F   0  0  0  0  0  0  0  0  0  0  0  0
    6.0000    0.0000    0.0000 C   0  0  0  0  0  0  0  0  0  0  0  0
    6.0000    1.5000    0.0000 F   0  0  0  0  0  0  0  0  0  0  0  0
    6.0000   -1.5000    0.0000 F   0  0  0  0  0  0  0  0  0  0  0  0
    7.5000    0.0000    0.0000 C   0  0  0  0  0  0  0  0  0  0  0  0
    9.0000    0.0000    0.0000 F   0  0  0  0  0  0  0  0  0  0  0  0
    7.5000   -1.5000    0.0000 F   0  0  0  0  0  0  0  0  0  0  0  0
    7.5000    1.5000    0.0000 F   0  0  0  0  0  0  0  0  0  0  0  0
  1  2  2  0
  2  3  2  0
  2  4  1  0
  2  5  1  0
  5  6  1  0
  5  7  1  0
  5  8  1  0
  8  9  1  0
  8 10  1  0
  8 11  1  0
 11 12  1  0
 11 13  1  0
 11 14  1  0
 14 15  1  0
 14 16  1  0
 14 17  1  0
 17 18  1  0
 17 19  1  0
 17 20  1  0
 20 21  1  0
 20 22  1  0
 20 23  1  0
M  END
$$$$

     RDKit          2D

 26 25  0  0  0  0  0  0  0  0999 V2000
    0.0000    0.0000    0.0000 C   0  0  0  0  0  0  0  0  0  0  0  0
    1.2990    0.7500    0.0000 N   0  0  0  0  0  0  0  0  0  0  0  0
    2.5981    1.5000    0.0000 C   0  0  0  0  0  0  0  0  0  0  0  0
    2.0490   -0.5490    0.0000 C   0  0  0  0  0  0  0  0  0  0  0  0
    3.5490   -0.5490    0.0000 C   0  0  0  0  0  0  0  0  0  0  0  0
    4.2990   -1.8481    0.0000 C   0  0  0  0  0  0  0  0  0  0  0  0
    5.7990   -1.8481    0.0000 N   0  0  0  0  0  0  0  0  0  0  0  0
    6.5490   -3.1471    0.0000 S   0  0  0  0  0  0  0  0  0  0  0  0
    5.2500   -3.8971    0.0000 O   0  0  0  0  0  0  0  0  0  0  0  0
    7.1857   -2.6674    0.0000 O   0  0  0  0  0  0  0  0  0  0  0  0
    7.2990   -4.4462    0.0000 C   0  0  0  0  0  0  0  0  0  0  0  0
    6.0000   -5.1962    0.0000 F   0  0  0  0  0  0  0  0  0  0  0  0
    8.0490   -5.7452    0.0000 F   0  0  0  0  0  0  0  0  0  0  0  0
    8.5981   -3.6962    0.0000 C   0  0  0  0  0  0  0  0  0  0  0  0
    8.2520   -2.8808    0.0000 F   0  0  0  0  0  0  0  0  0  0  0  0
    9.3481   -4.9952    0.0000 F   0  0  0  0  0  0  0  0  0  0  0  0
    9.8971   -2.9462    0.0000 C   0  0  0  0  0  0  0  0  0  0  0  0
   11.1962   -2.1962    0.0000 F   0  0  0  0  0  0  0  0  0  0  0  0
    9.1471   -1.6471    0.0000 F   0  0  0  0  0  0  0  0  0  0  0  0
   10.6471   -4.2452    0.0000 F   0  0  0  0  0  0  0  0  0  0  0  0
    0.5490    2.0490    0.0000 C   0  0  0  0  0  0  0  0  0  0  0  0
    1.2990    3.3481    0.0000 C   0  0  0  0  0  0  0  0  0  0  0  0
    0.5490    4.6471    0.0000 C   0  0  0  0  0  0  0  0  0  0  0  0
   -0.9510    4.6471    0.0000 O   0  0  0  0  0  0  0  0  0  0  0  0
    1.2990    5.9462    0.0000 C   0  0  0  0  0  0  0  0  0  0  0  0
    0.5490    7.2452    0.0000 O   0  0  0  0  0  0  0  0  0  0  0  0
  1  2  1  0
  2  3  1  0
  2  4  1  0
  4  5  1  0
  5  6  1  0
  6  7  1  0
  7  8  1  0
  8  9  2  0
  8 10  2  0
  8 11  1  0
 11 12  1  0
 11 13  1  0
 11 14  1  0
 14 15  1  0
 14 16  1  0
 14 17  1  0
 17 18  1  0
 17 19  1  0
 17 20  1  0
  2 21  1  0
 21 22  1  0
 22 23  1  0
 23 24  1  0
 23 25  1  0
 25 26  1  0
M  CHG  1   2   1
M  END
$$$$

     RDKit          2D

 25 24  0  0  0  0  0  0  0  0999 V2000
   -0.0000   -1.5000    0.0000 O   0  0  0  0  0  0  0  0  0  0  0  0
    0.0000    0.0000    0.0000 C   0  0  0  0  0  0  0  0  0  0  0  0
   -1.2990    0.7500    0.0000 O   0  0  0  0  0  0  0  0  0  0  0  0
    1.2990    0.7500    0.0000 C   0  0  0  0  0  0  0  0  0  0  0  0
    2.0490   -0.5490    0.0000 F   0  0  0  0  0  0  0  0  0  0  0  0
    0.5490    2.0490    0.0000 F   0  0  0  0  0  0  0  0  0  0  0  0
    2.5981    1.5000    0.0000 C   0  0  0  0  0  0  0  0  0  0  0  0
    1.8481    2.7990    0.0000 F   0  0  0  0  0  0  0  0  0  0  0  0
    3.3481    0.2010    0.0000 Cl  0  0  0  0  0  0  0  0  0  0  0  0
    3.8971    2.2500    0.0000 C   0  0  0  0  0  0  0  0  0  0  0  0
    3.1471    3.5490    0.0000 F   0  0  0  0  0  0  0  0  0  0  0  0
    4.6471    0.9510    0.0000 F   0  0  0  0  0  0  0  0  0  0  0  0
    5.1962    3.0000    0.0000 C   0  0  0  0  0  0  0  0  0  0  0  0
    5.9462    1.7010    0.0000 F   0  0  0  0  0  0  0  0  0  0  0  0
    4.4462    4.2990    0.0000 F   0  0  0  0  0  0  0  0  0  0  0  0
    6.4952    3.7500    0.0000 C   0  0  0  0  0  0  0  0  0  0  0  0
    7.2452    2.4510    0.0000 F   0  0  0  0  0  0  0  0  0  0  0  0
    5.7452    5.0490    0.0000 F   0  0  0  0  0  0  0  0  0  0  0  0
    7.7942    4.5000    0.0000 C   0  0  0  0  0  0  0  0  0  0  0  0
    7.0442    5.7990    0.0000 F   0  0  0  0  0  0  0  0  0  0  0  0
    8.5442    3.2010    0.0000 F   0  0  0  0  0  0  0  0  0  0  0  0
    9.0933    5.2500    0.0000 C   0  0  0  0  0  0  0  0  0  0  0  0
   10.3923    6.0000    0.0000 F   0  0  0  0  0  0  0  0  0  0  0  0
    9.8433    3.9510    0.0000 F   0  0  0  0  0  0  0  0  0  0  0  0
    8.3433    6.5490    0.0000 F   0  0  0  0  0  0  0  0  0  0  0  0
  1  2  2  0
  2  3  1  0
  2  4  1  0
  4  5  1  0
  4  6  1  0
  4  7  1  0
  7  8  1  0
  7  9  1  0
  7 10  1  0
 10 11  1  0
 10 12  1  0
 10 13  1  0
 13 14  1  0
 13 15  1  0
 13 16  1  0
 16 17  1  0
 16 18  1  0
 16 19  1  0
 19 20  1  0
 19 21  1  0
 19 22  1  0
 22 23  1  0
 22 24  1  0
 22 25  1  0
M  END
$$$$

     RDKit          2D

 32 31  0  0  0  0  0  0  0  0999 V2000
    0.0000    0.0000    0.0000 C   0  0  0  0  0  0  0  0  0  0  0  0
    1.2990    0.7500    0.0000 N   0  0  0  0  0  0  0  0  0  0  0  0
    2.5981    1.5000    0.0000 C   0  0  0  0  0  0  0  0  0  0  0  0
    2.0490   -0.5490    0.0000 C   0  0  0  0  0  0  0  0  0  0  0  0
    3.5490   -0.5490    0.0000 C   0  0  0  0  0  0  0  0  0  0  0  0
    4.2990   -1.8481    0.0000 C   0  0  0  0  0  0  0  0  0  0  0  0
    5.7990   -1.8481    0.0000 N   0  0  0  0  0  0  0  0  0  0  0  0
    6.5490   -3.1471    0.0000 S   0  0  0  0  0  0  0  0  0  0  0  0
    5.2500   -3.8971    0.0000 O   0  0  0  0  0  0  0  0  0  0  0  0
    7.1857   -2.6674    0.0000 O   0  0  0  0  0  0  0  0  0  0  0  0
    7.2990   -4.4462    0.0000 C   0  0  0  0  0  0  0  0  0  0  0  0
    6.0000   -5.1962    0.0000 F   0  0  0  0  0  0  0  0  0  0  0  0
    8.0490   -5.7452    0.0000 F   0  0  0  0  0  0  0  0  0  0  0  0
    8.5981   -3.6962    0.0000 C   0  0  0  0  0  0  0  0  0  0  0  0
    8.2520   -2.8808    0.0000 F   0  0  0  0  0  0  0  0  0  0  0  0
    9.3481   -4.9952    0.0000 F   0  0  0  0  0  0  0  0  0  0  0  0
    9.8971   -2.9462    0.0000 C   0  0  0  0  0  0  0  0  0  0  0  0
   10.6471   -4.2452    0.0000 F   0  0  0  0  0  0  0  0  0  0  0  0
    9.1471   -1.6471    0.0000 F   0  0  0  0  0  0  0  0  0  0  0  0
   11.1962   -2.1962    0.0000 C   0  0  0  0  0  0  0  0  0  0  0  0
   11.9462   -3.4952    0.0000 F   0  0  0  0  0  0  0  0  0  0  0  0
   10.4462   -0.8971    0.0000 F   0  0  0  0  0  0  0  0  0  0  0  0
   12.4952   -1.4462    0.0000 C   0  0  0  0  0  0  0  0  0  0  0  0
   13.7942   -0.6962    0.0000 F   0  0  0  0  0  0  0  0  0  0  0  0
   11.7452   -0.1471    0.0000 F   0  0  0  0  0  0  0  0  0  0  0  0
   13.2452   -2.7452    0.0000 F   0  0  0  0  0  0  0  0  0  0  0  0
    0.5490    2.0490    0.0000 C   0  0  0  0  0  0  0  0  0  0  0  0
    1.2990    3.3481    0.0000 C   0  0  0  0  0  0  0  0  0  0  0  0
    0.5490    4.6471    0.0000 C   0  0  0  0  0  0  0  0  0  0  0  0
   -0.9510    4.6471    0.0000 O   0  0  0  0  0  0  0  0  0  0  0  0
    1.2990    5.9462    0.0000 C   0  0  0  0  0  0  0  0  0  0  0  0
    0.5490    7.2452    0.0000 O   0  0  0  0  0  0  0  0  0  0  0  0
  1  2  1  0
  2  3  1  0
  2  4  1  0
  4  5  1  0
  5  6  1  0
  6  7  1  0
  7  8  1  0
  8  9  2  0
  8 10  2  0
  8 11  1  0
 11 12  1  0
 11 13  1  0
 11 14  1  0
 14 15  1  0
 14 16  1  0
 14 17  1  0
 17 18  1  0
 17 19  1  0
 17 20  1  0
 20 21  1  0
 20 22  1  0
 20 23  1  0
 23 24  1  0
 23 25  1  0
 23 26  1  0
  2 27  1  0
 27 28  1  0
 28 29  1  0
 29 30  1  0
 29 31  1  0
 31 32  1  0
M  CHG  1   2   1
M  END
$$$$

     RDKit          2D

 35 34  0  0  0  0  0  0  0  0999 V2000
    0.0000    0.0000    0.0000 C   0  0  0  0  0  0  0  0  0  0  0  0
    1.2990    0.7500    0.0000 N   0  0  0  0  0  0  0  0  0  0  0  0
    2.5981    1.5000    0.0000 C   0  0  0  0  0  0  0  0  0  0  0  0
    2.0490   -0.5490    0.0000 C   0  0  0  0  0  0  0  0  0  0  0  0
    0.5490    2.0490    0.0000 C   0  0  0  0  0  0  0  0  0  0  0  0
    1.2990    3.3481    0.0000 C   0  0  0  0  0  0  0  0  0  0  0  0
    0.0000    4.0981    0.0000 F   0  0  0  0  0  0  0  0  0  0  0  0
    2.5981    2.5981    0.0000 F   0  0  0  0  0  0  0  0  0  0  0  0
    2.0490    4.6471    0.0000 C   0  0  0  0  0  0  0  0  0  0  0  0
    3.3481    3.8971    0.0000 F   0  0  0  0  0  0  0  0  0  0  0  0
    0.7500    5.3971    0.0000 F   0  0  0  0  0  0  0  0  0  0  0  0
    2.7990    5.9462    0.0000 C   0  0  0  0  0  0  0  0  0  0  0  0
    1.5000    6.6962    0.0000 F   0  0  0  0  0  0  0  0  0  0  0  0
    4.0981    5.1962    0.0000 F   0  0  0  0  0  0  0  0  0  0  0  0
    3.5490    7.2452    0.0000 C   0  0  0  0  0  0  0  0  0  0  0  0
    4.8481    6.4952    0.0000 F   0  0  0  0  0  0  0  0  0  0  0  0
    2.2500    7.9952    0.0000 F   0  0  0  0  0  0  0  0  0  0  0  0
    4.2990    8.5442    0.0000 C   0  0  0  0  0  0  0  0  0  0  0  0
    3.0000    9.2942    0.0000 F   0  0  0  0  0  0  0  0  0  0  0  0
    5.5981    7.7942    0.0000 F   0  0  0  0  0  0  0  0  0  0  0  0
    5.0490    9.8433    0.0000 C   0  0  0  0  0  0  0  0  0  0  0  0
    3.7500   10.5933    0.0000 F   0  0  0  0  0  0  0  0  0  0  0  0
    6.3481    9.0933    0.0000 F   0  0  0  0  0  0  0  0  0  0  0  0
    5.7990   11.1423    0.0000 C   0  0  0  0  0  0  0  0  0  0  0  0
    7.0981   10.3923    0.0000 F   0  0  0  0  0  0  0  0  0  0  0  0
    4.5000   11.8923    0.0000 F   0  0  0  0  0  0  0  0  0  0  0  0
    6.5490   12.4413    0.0000 C   0  0  0  0  0  0  0  0  0  0  0  0
    5.2500   13.1913    0.0000 F   0  0  0  0  0  0  0  0  0  0  0  0
    7.8481   11.6913    0.0000 F   0  0  0  0  0  0  0  0  0  0  0  0
    7.2990   13.7404    0.0000 C   0  0  0  0  0  0  0  0  0  0  0  0
    8.5981   12.9904    0.0000 F   0  0  0  0  0  0  0  0  0  0  0  0
    6.0000   14.4904    0.0000 F   0  0  0  0  0  0  0  0  0  0  0  0
    8.0490   15.0394    0.0000 C   0  0  0  0  0  0  0  0  0  0  0  0
    9.5490   15.0394    0.0000 F   0  0  0  0  0  0  0  0  0  0  0  0
    7.2990   16.3385    0.0000 F   0  0  0  0  0  0  0  0  0  0  0  0
  1  2  1  0
  2  3  1  0
  2  4  1  0
  2  5  1  0
  5  6  1  0
  6  7  1  0
  6  8  1  0
  6  9  1  0
  9 10  1  0
  9 11  1  0
  9 12  1  0
 12 13  1  0
 12 14  1  0
 12 15  1  0
 15 16  1  0
 15 17  1  0
 15 18  1  0
 18 19  1  0
 18 20  1  0
 18 21  1  0
 21 22  1  0
 21 23  1  0
 21 24  1  0
 24 25  1  0
 24 26  1  0
 24 27  1  0
 27 28  1  0
 27 29  1  0
 27 30  1  0
 30 31  1  0
 30 32  1  0
 30 33  1  0
 33 34  1  0
 33 35  1  0
M  CHG  1   2   1
M  END
$$$$

     RDKit          2D

 29 28  0  0  0  0  0  0  0  0999 V2000
    0.0000    0.0000    0.0000 C   0  0  0  0  0  0  0  0  0  0  0  0
    1.2990    0.7500    0.0000 N   0  0  0  0  0  0  0  0  0  0  0  0
    2.5981    1.5000    0.0000 C   0  0  0  0  0  0  0  0  0  0  0  0
    2.0490   -0.5490    0.0000 C   0  0  0  0  0  0  0  0  0  0  0  0
    3.5490   -0.5490    0.0000 C   0  0  0  0  0  0  0  0  0  0  0  0
    4.2990    0.7500    0.0000 O   0  0  0  0  0  0  0  0  0  0  0  0
    4.2990   -1.8481    0.0000 O   0  0  0  0  0  0  0  0  0  0  0  0
    0.5490    2.0490    0.0000 C   0  0  0  0  0  0  0  0  0  0  0  0
    1.2990    3.3481    0.0000 C   0  0  0  0  0  0  0  0  0  0  0  0
    2.7990    3.3481    0.0000 F   0  0  0  0  0  0  0  0  0  0  0  0
    0.5490    4.6471    0.0000 C   0  0  0  0  0  0  0  0  0  0  0  0
    1.8481    5.3971    0.0000 F   0  0  0  0  0  0  0  0  0  0  0  0
   -0.7500    3.8971    0.0000 F   0  0  0  0  0  0  0  0  0  0  0  0
   -0.2010    5.9462    0.0000 C   0  0  0  0  0  0  0  0  0  0  0  0
   -1.5000    5.1962    0.0000 F   0  0  0  0  0  0  0  0  0  0  0  0
    1.0981    6.6962    0.0000 F   0  0  0  0  0  0  0  0  0  0  0  0
   -0.9510    7.2452    0.0000 C   0  0  0  0  0  0  0  0  0  0  0  0
    0.3481    7.9952    0.0000 F   0  0  0  0  0  0  0  0  0  0  0  0
   -2.2500    6.4952    0.0000 F   0  0  0  0  0  0  0  0  0  0  0  0
   -1.7010    8.5442    0.0000 C   0  0  0  0  0  0  0  0  0  0  0  0
   -3.0000    7.7942    0.0000 F   0  0  0  0  0  0  0  0  0  0  0  0
   -0.4019    9.2942    0.0000 F   0  0  0  0  0  0  0  0  0  0  0  0
   -2.4510    9.8433    0.0000 C   0  0  0  0  0  0  0  0  0  0  0  0
   -1.1519   10.5933    0.0000 F   0  0  0  0  0  0  0  0  0  0  0  0
   -3.7500    9.0933    0.0000 F   0  0  0  0  0  0  0  0  0  0  0  0
   -3.2010   11.1423    0.0000 C   0  0  0  0  0  0  0  0  0  0  0  0
   -3.9510   12.4413    0.0000 F   0  0  0  0  0  0  0  0  0  0  0  0
   -4.5000   10.3923    0.0000 F   0  0  0  0  0  0  0  0  0  0  0  0
   -1.9019   11.8923    0.0000 F   0  0  0  0  0  0  0  0  0  0  0  0
  1  2  1  0
  2  3  1  0
  2  4  1  0
  4  5  1  0
  5  6  2  0
  5  7  1  0
  2  8  1  0
  8  9  1  0
  9 10  1  0
  9 11  1  0
 11 12  1  0
 11 13  1  0
 11 14  1  0
 14 15  1  0
 14 16  1  0
 14 17  1  0
 17 18  1  0
 17 19  1  0
 17 20  1  0
 20 21  1  0
 20 22  1  0
 20 23  1  0
 23 24  1  0
 23 25  1  0
 23 26  1  0
 26 27  1  0
 26 28  1  0
 26 29  1  0
M  CHG  1   2   1
M  END
$$$$

     RDKit          2D

 47 46  0  0  0  0  0  0  0  0999 V2000
    7.0981    4.0981    0.0000 C   0  0  0  0  0  0  0  0  0  0  0  0
    5.7990    3.3481    0.0000 N   0  0  0  0  0  0  0  0  0  0  0  0
    4.5000    2.5981    0.0000 C   0  0  0  0  0  0  0  0  0  0  0  0
    6.5490    2.0490    0.0000 C   0  0  0  0  0  0  0  0  0  0  0  0
    5.7990    0.7500    0.0000 C   0  0  0  0  0  0  0  0  0  0  0  0
    6.5490   -0.5490    0.0000 C   0  0  0  0  0  0  0  0  0  0  0  0
    5.7990   -1.8481    0.0000 N   0  0  0  0  0  0  0  0  0  0  0  0
    6.5490   -3.1471    0.0000 S   0  0  0  0  0  0  0  0  0  0  0  0
    7.8481   -2.3971    0.0000 O   0  0  0  0  0  0  0  0  0  0  0  0
    5.8152   -3.4586    0.0000 O   0  0  0  0  0  0  0  0  0  0  0  0
    7.2990   -4.4462    0.0000 C   0  0  0  0  0  0  0  0  0  0  0  0
    8.5981   -3.6962    0.0000 F   0  0  0  0  0  0  0  0  0  0  0  0
    8.0490   -5.7452    0.0000 F   0  0  0  0  0  0  0  0  0  0  0  0
    6.0000   -5.1962    0.0000 C   0  0  0  0  0  0  0  0  0  0  0  0
    5.4669   -4.4888    0.0000 F   0  0  0  0  0  0  0  0  0  0  0  0
    6.7500   -6.4952    0.0000 F   0  0  0  0  0  0  0  0  0  0  0  0
    4.7010   -5.9462    0.0000 C   0  0  0  0  0  0  0  0  0  0  0  0
    5.4510   -7.2452    0.0000 F   0  0  0  0  0  0  0  0  0  0  0  0
    3.9510   -4.6471    0.0000 F   0  0  0  0  0  0  0  0  0  0  0  0
    3.4019   -6.6962    0.0000 C   0  0  0  0  0  0  0  0  0  0  0  0
    2.6519   -5.3971    0.0000 F   0  0  0  0  0  0  0  0  0  0  0  0
    4.1519   -7.9952    0.0000 F   0  0  0  0  0  0  0  0  0  0  0  0
    2.1029   -7.4462    0.0000 C   0  0  0  0  0  0  0  0  0  0  0  0
    2.8529   -8.7452    0.0000 F   0  0  0  0  0  0  0  0  0  0  0  0
    1.3529   -6.1471    0.0000 F   0  0  0  0  0  0  0  0  0  0  0  0
    0.8038   -8.1962    0.0000 C   0  0  0  0  0  0  0  0  0  0  0  0
    1.5538   -9.4952    0.0000 F   0  0  0  0  0  0  0  0  0  0  0  0
    0.0538   -6.8971    0.0000 F   0  0  0  0  0  0  0  0  0  0  0  0
   -0.4952   -8.9462    0.0000 C   0  0  0  0  0  0  0  0  0  0  0  0
   -1.2452   -7.6471    0.0000 F   0  0  0  0  0  0  0  0  0  0  0  0
    0.2548  -10.2452    0.0000 F   0  0  0  0  0  0  0  0  0  0  0  0
   -1.7942   -9.6962    0.0000 C   0  0  0  0  0  0  0  0  0  0  0  0
   -1.0442  -10.9952    0.0000 F   0  0  0  0  0  0  0  0  0  0  0  0
   -2.5442   -8.3971    0.0000 F   0  0  0  0  0  0  0  0  0  0  0  0
   -3.0933  -10.4462    0.0000 C   0  0  0  0  0  0  0  0  0  0  0  0
   -3.8433   -9.1471    0.0000 F   0  0  0  0  0  0  0  0  0  0  0  0
   -2.3433  -11.7452    0.0000 F   0  0  0  0  0  0  0  0  0  0  0  0
   -4.3923  -11.1962    0.0000 C   0  0  0  0  0  0  0  0  0  0  0  0
   -5.6913  -11.9462    0.0000 F   0  0  0  0  0  0  0  0  0  0  0  0
   -3.6423  -12.4952    0.0000 F   0  0  0  0  0  0  0  0  0  0  0  0
   -5.1423   -9.8971    0.0000 F   0  0  0  0  0  0  0  0  0  0  0  0
    5.0490    4.6471    0.0000 C   0  0  0  0  0  0  0  0  0  0  0  0
    3.5490    4.6471    0.0000 C   0  0  0  0  0  0  0  0  0  0  0  0
    2.7990    5.9462    0.0000 C   0  0  0  0  0  0  0  0  0  0  0  0
    3.5490    7.2452    0.0000 O   0  0  0  0  0  0  0  0  0  0  0  0
    1.2990    5.9462    0.0000 C   0  0  0  0  0  0  0  0  0  0  0  0
    0.5490    7.2452    0.0000 O   0  0  0  0  0  0  0  0  0  0  0  0
  1  2  1  0
  2  3  1  0
  2  4  1  0
  4  5  1  0
  5  6  1  0
  6  7  1  0
  7  8  1  0
  8  9  2  0
  8 10  2  0
  8 11  1  0
 11 12  1  0
 11 13  1  0
 11 14  1  0
 14 15  1  0
 14 16  1  0
 14 17  1  0
 17 18  1  0
 17 19  1  0
 17 20  1  0
 20 21  1  0
 20 22  1  0
 20 23  1  0
 23 24  1  0
 23 25  1  0
 23 26  1  0
 26 27  1  0
 26 28  1  0
 26 29  1  0
 29 30  1  0
 29 31  1  0
 29 32  1  0
 32 33  1  0
 32 34  1  0
 32 35  1  0
 35 36  1  0
 35 37  1  0
 35 38  1  0
 38 39  1  0
 38 40  1  0
 38 41  1  0
  2 42  1  0
 42 43  1  0
 43 44  1  0
 44 45  1  0
 44 46  1  0
 46 47  1  0
M  CHG  1   2   1
M  END
$$$$

     RDKit          2D

 55 54  0  0  0  0  0  0  0  0999 V2000
    1.0981    0.0000    0.0000 C   0  0  0  0  0  0  0  0  0  0  0  0
   -0.2010    0.7500    0.0000 N   0  0  0  0  0  0  0  0  0  0  0  0
   -1.5000    1.5000    0.0000 C   0  0  0  0  0  0  0  0  0  0  0  0
   -0.9510   -0.5490    0.0000 C   0  0  0  0  0  0  0  0  0  0  0  0
   -2.4510   -0.5490    0.0000 C   0  0  0  0  0  0  0  0  0  0  0  0
   -3.2010   -1.8481    0.0000 C   0  0  0  0  0  0  0  0  0  0  0  0
   -4.7010   -1.8481    0.0000 C   0  0  0  0  0  0  0  0  0  0  0  0
   -5.4510   -3.1471    0.0000 O   0  0  0  0  0  0  0  0  0  0  0  0
   -2.4510   -3.1471    0.0000 N   0  0  0  0  0  0  0  0  0  0  0  0
   -3.2010   -4.4462    0.0000 C   0  0  0  0  0  0  0  0  0  0  0  0
   -2.4510   -5.7452    0.0000 C   0  0  0  0  0  0  0  0  0  0  0  0
   -3.2010   -7.0442    0.0000 C   0  0  0  0  0  0  0  0  0  0  0  0
   -2.4510   -8.3433    0.0000 S   0  0  0  0  0  0  0  0  0  0  0  0
   -3.7500   -9.0933    0.0000 O   0  0  0  0  0  0  0  0  0  0  0  0
   -1.2530   -7.4405    0.0000 O   0  0  0  0  0  0  0  0  0  0  0  0
   -1.8649   -9.7240    0.0000 O   0  0  0  0  0  0  0  0  0  0  0  0
   -0.9510   -3.1471    0.0000 S   0  0  0  0  0  0  0  0  0  0  0  0
   -0.9510   -1.6471    0.0000 O   0  0  0  0  0  0  0  0  0  0  0  0
   -1.0481   -3.9383    0.0000 O   0  0  0  0  0  0  0  0  0  0  0  0
    0.5490   -3.1471    0.0000 C   0  0  0  0  0  0  0  0  0  0  0  0
    0.5490   -1.6471    0.0000 F   0  0  0  0  0  0  0  0  0  0  0  0
    2.0490   -3.1471    0.0000 F   0  0  0  0  0  0  0  0  0  0  0  0
    0.5490   -4.6471    0.0000 C   0  0  0  0  0  0  0  0  0  0  0  0
    2.0490   -4.6471    0.0000 F   0  0  0  0  0  0  0  0  0  0  0  0
   -0.3301   -4.7551    0.0000 F   0  0  0  0  0  0  0  0  0  0  0  0
    0.5490   -6.1471    0.0000 C   0  0  0  0  0  0  0  0  0  0  0  0
    2.0490   -6.1471    0.0000 F   0  0  0  0  0  0  0  0  0  0  0  0
   -0.9510   -6.1471    0.0000 F   0  0  0  0  0  0  0  0  0  0  0  0
    0.5490   -7.6471    0.0000 C   0  0  0  0  0  0  0  0  0  0  0  0
    2.0490   -7.6471    0.0000 F   0  0  0  0  0  0  0  0  0  0  0  0
   -0.9398   -7.4643    0.0000 F   0  0  0  0  0  0  0  0  0  0  0  0
    0.5490   -9.1471    0.0000 C   0  0  0  0  0  0  0  0  0  0  0  0
    2.0490   -9.1471    0.0000 F   0  0  0  0  0  0  0  0  0  0  0  0
   -0.9398   -9.3300    0.0000 F   0  0  0  0  0  0  0  0  0  0  0  0
    0.5490  -10.6471    0.0000 C   0  0  0  0  0  0  0  0  0  0  0  0
   -0.9510  -10.6471    0.0000 F   0  0  0  0  0  0  0  0  0  0  0  0
    2.0490  -10.6471    0.0000 F   0  0  0  0  0  0  0  0  0  0  0  0
    0.5490  -12.1471    0.0000 C   0  0  0  0  0  0  0  0  0  0  0  0
    2.0490  -12.1471    0.0000 F   0  0  0  0  0  0  0  0  0  0  0  0
   -0.9510  -12.1471    0.0000 F   0  0  0  0  0  0  0  0  0  0  0  0
    0.5490  -13.6471    0.0000 C   0  0  0  0  0  0  0  0  0  0  0  0
   -0.9510  -13.6471    0.0000 F   0  0  0  0  0  0  0  0  0  0  0  0
    2.0490  -13.6471    0.0000 F   0  0  0  0  0  0  0  0  0  0  0  0
    0.5490  -15.1471    0.0000 C   0  0  0  0  0  0  0  0  0  0  0  0
    2.0490  -15.1471    0.0000 F   0  0  0  0  0  0  0  0  0  0  0  0
   -0.9510  -15.1471    0.0000 F   0  0  0  0  0  0  0  0  0  0  0  0
    0.5490  -16.6471    0.0000 C   0  0  0  0  0  0  0  0  0  0  0  0
    0.5490  -18.1471    0.0000 F   0  0  0  0  0  0  0  0  0  0  0  0
   -0.9510  -16.6471    0.0000 F   0  0  0  0  0  0  0  0  0  0  0  0
    2.0490  -16.6471    0.0000 F   0  0  0  0  0  0  0  0  0  0  0  0
    0.5490    2.0490    0.0000 C   0  0  0  0  0  0  0  0  0  0  0  0
   -0.2010    3.3481    0.0000 C   0  0  0  0  0  0  0  0  0  0  0  0
   -1.7010    3.3481    0.0000 O   0  0  0  0  0  0  0  0  0  0  0  0
    0.5490    4.6471    0.0000 C   0  0  0  0  0  0  0  0  0  0  0  0
   -0.2010    5.9462    0.0000 O   0  0  0  0  0  0  0  0  0  0  0  0
  1  2  1  0
  2  3  1  0
  2  4  1  0
  4  5  1  0
  5  6  1  0
  6  7  1  0
  7  8  1  0
  6  9  1  0
  9 10  1  0
 10 11  1  0
 11 12  1  0
 12 13  1  0
 13 14  2  0
 13 15  2  0
 13 16  1  0
  9 17  1  0
 17 18  2  0
 17 19  2  0
 17 20  1  0
 20 21  1  0
 20 22  1  0
 20 23  1  0
 23 24  1  0
 23 25  1  0
 23 26  1  0
 26 27  1  0
 26 28  1  0
 26 29  1  0
 29 30  1  0
 29 31  1  0
 29 32  1  0
 32 33  1  0
 32 34  1  0
 32 35  1  0
 35 36  1  0
 35 37  1  0
 35 38  1  0
 38 39  1  0
 38 40  1  0
 38 41  1  0
 41 42  1  0
 41 43  1  0
 41 44  1  0
 44 45  1  0
 44 46  1  0
 44 47  1  0
 47 48  1  0
 47 49  1  0
 47 50  1  0
  2 51  1  0
 51 52  1  0
 52 53  1  0
 52 54  1  0
 54 55  1  0
M  CHG  2   2   1  16  -1
M  END
$$$$

     RDKit          2D

 48 47  0  0  0  0  0  0  0  0999 V2000
    0.0000    0.0000    0.0000 C   0  0  0  0  0  0  0  0  0  0  0  0
    1.2990    0.7500    0.0000 C   0  0  0  0  0  0  0  0  0  0  0  0
    2.5981   -0.0000    0.0000 N   0  0  0  0  0  0  0  0  0  0  0  0
    3.8971    0.7500    0.0000 C   0  0  0  0  0  0  0  0  0  0  0  0
    5.1962   -0.0000    0.0000 C   0  0  0  0  0  0  0  0  0  0  0  0
    6.4952    0.7500    0.0000 C   0  0  0  0  0  0  0  0  0  0  0  0
    7.7942   -0.0000    0.0000 N   0  0  0  0  0  0  0  0  0  0  0  0
    8.5442    1.2990    0.0000 C   0  0  0  0  0  0  0  0  0  0  0  0
    7.0442   -1.2990    0.0000 C   0  0  0  0  0  0  0  0  0  0  0  0
    9.0933   -0.7500    0.0000 C   0  0  0  0  0  0  0  0  0  0  0  0
    9.0933   -2.2500    0.0000 C   0  0  0  0  0  0  0  0  0  0  0  0
    2.5981   -1.5000    0.0000 S   0  0  0  0  0  0  0  0  0  0  0  0
    1.8069   -1.4028    0.0000 O   0  0  0  0  0  0  0  0  0  0  0  0
    4.0981   -1.5000    0.0000 O   0  0  0  0  0  0  0  0  0  0  0  0
    2.5981   -3.0000    0.0000 C   0  0  0  0  0  0  0  0  0  0  0  0
    4.0981   -3.0000    0.0000 F   0  0  0  0  0  0  0  0  0  0  0  0
    2.5981   -4.5000    0.0000 F   0  0  0  0  0  0  0  0  0  0  0  0
    1.0981   -3.0000    0.0000 C   0  0  0  0  0  0  0  0  0  0  0  0
    0.9901   -2.1209    0.0000 F   0  0  0  0  0  0  0  0  0  0  0  0
    1.0981   -4.5000    0.0000 F   0  0  0  0  0  0  0  0  0  0  0  0
   -0.4019   -3.0000    0.0000 C   0  0  0  0  0  0  0  0  0  0  0  0
   -0.4019   -1.5000    0.0000 F   0  0  0  0  0  0  0  0  0  0  0  0
   -0.4019   -4.5000    0.0000 F   0  0  0  0  0  0  0  0  0  0  0  0
   -1.9019   -3.0000    0.0000 C   0  0  0  0  0  0  0  0  0  0  0  0
   -1.9019   -4.5000    0.0000 F   0  0  0  0  0  0  0  0  0  0  0  0
   -1.9019   -1.5000    0.0000 F   0  0  0  0  0  0  0  0  0  0  0  0
   -3.4019   -3.0000    0.0000 C   0  0  0  0  0  0  0  0  0  0  0  0
   -3.4019   -1.5000    0.0000 F   0  0  0  0  0  0  0  0  0  0  0  0
   -3.4019   -4.5000    0.0000 F   0  0  0  0  0  0  0  0  0  0  0  0
   -4.9019   -3.0000    0.0000 C   0  0  0  0  0  0  0  0  0  0  0  0
   -4.9019   -4.5000    0.0000 F   0  0  0  0  0  0  0  0  0  0  0  0
   -4.9019   -1.5000    0.0000 F   0  0  0  0  0  0  0  0  0  0  0  0
   -6.4019   -3.0000    0.0000 C   0  0  0  0  0  0  0  0  0  0  0  0
   -6.4019   -4.5000    0.0000 F   0  0  0  0  0  0  0  0  0  0  0  0
   -6.4019   -1.5000    0.0000 F   0  0  0  0  0  0  0  0  0  0  0  0
   -7.9019   -3.0000    0.0000 C   0  0  0  0  0  0  0  0  0  0  0  0
   -7.9019   -1.5000    0.0000 F   0  0  0  0  0  0  0  0  0  0  0  0
   -7.9019   -4.5000    0.0000 F   0  0  0  0  0  0  0  0  0  0  0  0
   -9.4019   -3.0000    0.0000 C   0  0  0  0  0  0  0  0  0  0  0  0
   -9.4019   -4.5000    0.0000 F   0  0  0  0  0  0  0  0  0  0  0  0
   -9.4019   -1.5000    0.0000 F   0  0  0  0  0  0  0  0  0  0  0  0
  -10.9019   -3.0000    0.0000 C   0  0  0  0  0  0  0  0  0  0  0  0
  -10.9019   -1.5000    0.0000 F   0  0  0  0  0  0  0  0  0  0  0  0
  -10.9019   -4.5000    0.0000 F   0  0  0  0  0  0  0  0  0  0  0  0
  -12.4019   -3.0000    0.0000 C   0  0  0  0  0  0  0  0  0  0  0  0
  -13.9019   -3.0000    0.0000 F   0  0  0  0  0  0  0  0  0  0  0  0
  -12.4019   -4.5000    0.0000 F   0  0  0  0  0  0  0  0  0  0  0  0
  -12.4019   -1.5000    0.0000 F   0  0  0  0  0  0  0  0  0  0  0  0
  1  2  1  0
  2  3  1  0
  3  4  1  0
  4  5  1  0
  5  6  1  0
  6  7  1  0
  7  8  1  0
  7  9  1  0
  7 10  1  0
 10 11  1  0
  3 12  1  0
 12 13  2  0
 12 14  2  0
 12 15  1  0
 15 16  1  0
 15 17  1  0
 15 18  1  0
 18 19  1  0
 18 20  1  0
 18 21  1  0
 21 22  1  0
 21 23  1  0
 21 24  1  0
 24 25  1  0
 24 26  1  0
 24 27  1  0
 27 28  1  0
 27 29  1  0
 27 30  1  0
 30 31  1  0
 30 32  1  0
 30 33  1  0
 33 34  1  0
 33 35  1  0
 33 36  1  0
 36 37  1  0
 36 38  1  0
 36 39  1  0
 39 40  1  0
 39 41  1  0
 39 42  1  0
 42 43  1  0
 42 44  1  0
 42 45  1  0
 45 46  1  0
 45 47  1  0
 45 48  1  0
M  CHG  1   7   1
M  END
$$$$

     RDKit          2D

 17 16  0  0  0  0  0  0  0  0999 V2000
    0.0000    0.0000    0.0000 C   0  0  0  0  0  0  0  0  0  0  0  0
    1.2990    0.7500    0.0000 C   0  0  0  0  0  0  0  0  0  0  0  0
    2.5981   -0.0000    0.0000 N   0  0  0  0  0  0  0  0  0  0  0  0
    3.8971    0.7500    0.0000 C   0  0  0  0  0  0  0  0  0  0  0  0
    5.1962   -0.0000    0.0000 C   0  0  0  0  0  0  0  0  0  0  0  0
    5.1962   -1.5000    0.0000 O   0  0  0  0  0  0  0  0  0  0  0  0
    6.4952    0.7500    0.0000 O   0  0  0  0  0  0  0  0  0  0  0  0
    2.5981   -1.5000    0.0000 S   0  0  0  0  0  0  0  0  0  0  0  0
    1.8069   -1.4028    0.0000 O   0  0  0  0  0  0  0  0  0  0  0  0
    4.0981   -1.5000    0.0000 O   0  0  0  0  0  0  0  0  0  0  0  0
    2.5981   -3.0000    0.0000 C   0  0  0  0  0  0  0  0  0  0  0  0
    4.0981   -3.0000    0.0000 F   0  0  0  0  0  0  0  0  0  0  0  0
    2.5981   -4.5000    0.0000 F   0  0  0  0  0  0  0  0  0  0  0  0
    1.0981   -3.0000    0.0000 C   0  0  0  0  0  0  0  0  0  0  0  0
   -0.4019   -3.0000    0.0000 F   0  0  0  0  0  0  0  0  0  0  0  0
    1.0981   -4.5000    0.0000 F   0  0  0  0  0  0  0  0  0  0  0  0
    0.9901   -2.1209    0.0000 F   0  0  0  0  0  0  0  0  0  0  0  0
  1  2  1  0
  2  3  1  0
  3  4  1  0
  4  5  1  0
  5  6  2  0
  5  7  1  0
  3  8  1  0
  8  9  2  0
  8 10  2  0
  8 11  1  0
 11 12  1  0
 11 13  1  0
 11 14  1  0
 14 15  1  0
 14 16  1  0
 14 17  1  0
M  END
$$$$

     RDKit          2D

 44 43  0  0  0  0  0  0  0  0999 V2000
    0.0000    0.0000    0.0000 C   0  0  0  0  0  0  0  0  0  0  0  0
    1.2990    0.7500    0.0000 N   0  0  0  0  0  0  0  0  0  0  0  0
    2.5981    1.5000    0.0000 C   0  0  0  0  0  0  0  0  0  0  0  0
    2.0490   -0.5490    0.0000 C   0  0  0  0  0  0  0  0  0  0  0  0
    3.5490   -0.5490    0.0000 C   0  0  0  0  0  0  0  0  0  0  0  0
    4.2990    0.7500    0.0000 O   0  0  0  0  0  0  0  0  0  0  0  0
    4.2990   -1.8481    0.0000 O   0  0  0  0  0  0  0  0  0  0  0  0
    0.5490    2.0490    0.0000 C   0  0  0  0  0  0  0  0  0  0  0  0
    1.2990    3.3481    0.0000 C   0  0  0  0  0  0  0  0  0  0  0  0
    2.7990    3.3481    0.0000 F   0  0  0  0  0  0  0  0  0  0  0  0
    0.5490    4.6471    0.0000 C   0  0  0  0  0  0  0  0  0  0  0  0
    1.8481    5.3971    0.0000 F   0  0  0  0  0  0  0  0  0  0  0  0
   -0.7500    3.8971    0.0000 F   0  0  0  0  0  0  0  0  0  0  0  0
   -0.2010    5.9462    0.0000 C   0  0  0  0  0  0  0  0  0  0  0  0
   -1.5000    5.1962    0.0000 F   0  0  0  0  0  0  0  0  0  0  0  0
    1.0981    6.6962    0.0000 F   0  0  0  0  0  0  0  0  0  0  0  0
   -0.9510    7.2452    0.0000 C   0  0  0  0  0  0  0  0  0  0  0  0
    0.3481    7.9952    0.0000 F   0  0  0  0  0  0  0  0  0  0  0  0
   -2.2500    6.4952    0.0000 F   0  0  0  0  0  0  0  0  0  0  0  0
   -1.7010    8.5442    0.0000 C   0  0  0  0  0  0  0  0  0  0  0  0
   -3.0000    7.7942    0.0000 F   0  0  0  0  0  0  0  0  0  0  0  0
   -0.4019    9.2942    0.0000 F   0  0  0  0  0  0  0  0  0  0  0  0
   -2.4510    9.8433    0.0000 C   0  0  0  0  0  0  0  0  0  0  0  0
   -1.1519   10.5933    0.0000 F   0  0  0  0  0  0  0  0  0  0  0  0
   -3.7500    9.0933    0.0000 F   0  0  0  0  0  0  0  0  0  0  0  0
   -3.2010   11.1423    0.0000 C   0  0  0  0  0  0  0  0  0  0  0  0
   -4.5000   10.3923    0.0000 F   0  0  0  0  0  0  0  0  0  0  0  0
   -1.9019   11.8923    0.0000 F   0  0  0  0  0  0  0  0  0  0  0  0
   -3.9510   12.4413    0.0000 C   0  0  0  0  0  0  0  0  0  0  0  0
   -2.6519   13.1913    0.0000 F   0  0  0  0  0  0  0  0  0  0  0  0
   -5.2500   11.6913    0.0000 F   0  0  0  0  0  0  0  0  0  0  0  0
   -4.7010   13.7404    0.0000 C   0  0  0  0  0  0  0  0  0  0  0  0
   -6.0000   12.9904    0.0000 F   0  0  0  0  0  0  0  0  0  0  0  0
   -3.4019   14.4904    0.0000 F   0  0  0  0  0  0  0  0  0  0  0  0
   -5.4510   15.0394    0.0000 C   0  0  0  0  0  0  0  0  0  0  0  0
   -4.1519   15.7894    0.0000 F   0  0  0  0  0  0  0  0  0  0  0  0
   -6.7500   14.2894    0.0000 F   0  0  0  0  0  0  0  0  0  0  0  0
   -6.2010   16.3385    0.0000 C   0  0  0  0  0  0  0  0  0  0  0  0
   -7.5000   15.5885    0.0000 F   0  0  0  0  0  0  0  0  0  0  0  0
   -4.9019   17.0885    0.0000 F   0  0  0  0  0  0  0  0  0  0  0  0
   -6.9510   17.6375    0.0000 C   0  0  0  0  0  0  0  0  0  0  0  0
   -7.7010   18.9365    0.0000 F   0  0  0  0  0  0  0  0  0  0  0  0
   -5.6519   18.3875    0.0000 F   0  0  0  0  0  0  0  0  0  0  0  0
   -8.2500   16.8875    0.0000 F   0  0  0  0  0  0  0  0  0  0  0  0
  1  2  1  0
  2  3  1  0
  2  4  1  0
  4  5  1  0
  5  6  2  0
  5  7  1  0
  2  8  1  0
  8  9  1  0
  9 10  1  0
  9 11  1  0
 11 12  1  0
 11 13  1  0
 11 14  1  0
 14 15  1  0
 14 16  1  0
 14 17  1  0
 17 18  1  0
 17 19  1  0
 17 20  1  0
 20 21  1  0
 20 22  1  0
 20 23  1  0
 23 24  1  0
 23 25  1  0
 23 26  1  0
 26 27  1  0
 26 28  1  0
 26 29  1  0
 29 30  1  0
 29 31  1  0
 29 32  1  0
 32 33  1  0
 32 34  1  0
 32 35  1  0
 35 36  1  0
 35 37  1  0
 35 38  1  0
 38 39  1  0
 38 40  1  0
 38 41  1  0
 41 42  1  0
 41 43  1  0
 41 44  1  0
M  CHG  1   2   1
M  END
$$$$

     RDKit          2D

 24 23  0  0  0  0  0  0  0  0999 V2000
   -2.0490   -0.5490    0.0000 O   0  0  0  0  0  0  0  0  0  0  0  0
   -1.2990    0.7500    0.0000 S   0  0  0  0  0  0  0  0  0  0  0  0
   -0.5490    2.0490    0.0000 O   0  0  0  0  0  0  0  0  0  0  0  0
   -2.5981    1.5000    0.0000 O   0  0  0  0  0  0  0  0  0  0  0  0
    0.0000    0.0000    0.0000 C   0  0  0  0  0  0  0  0  0  0  0  0
    1.2990    0.7500    0.0000 C   0  0  0  0  0  0  0  0  0  0  0  0
    0.5490    2.0490    0.0000 F   0  0  0  0  0  0  0  0  0  0  0  0
    2.0490   -0.5490    0.0000 F   0  0  0  0  0  0  0  0  0  0  0  0
    2.5981    1.5000    0.0000 C   0  0  0  0  0  0  0  0  0  0  0  0
    3.3481    0.2010    0.0000 F   0  0  0  0  0  0  0  0  0  0  0  0
    1.8481    2.7990    0.0000 F   0  0  0  0  0  0  0  0  0  0  0  0
    3.8971    2.2500    0.0000 C   0  0  0  0  0  0  0  0  0  0  0  0
    3.1471    3.5490    0.0000 F   0  0  0  0  0  0  0  0  0  0  0  0
    4.6471    0.9510    0.0000 F   0  0  0  0  0  0  0  0  0  0  0  0
    5.1962    3.0000    0.0000 C   0  0  0  0  0  0  0  0  0  0  0  0
    4.4462    4.2990    0.0000 F   0  0  0  0  0  0  0  0  0  0  0  0
    5.9462    1.7010    0.0000 F   0  0  0  0  0  0  0  0  0  0  0  0
    6.4952    3.7500    0.0000 C   0  0  0  0  0  0  0  0  0  0  0  0
    7.2452    2.4510    0.0000 F   0  0  0  0  0  0  0  0  0  0  0  0
    5.7452    5.0490    0.0000 F   0  0  0  0  0  0  0  0  0  0  0  0
    7.7942    4.5000    0.0000 C   0  0  0  0  0  0  0  0  0  0  0  0
    9.0933    5.2500    0.0000 F   0  0  0  0  0  0  0  0  0  0  0  0
    7.0442    5.7990    0.0000 F   0  0  0  0  0  0  0  0  0  0  0  0
    8.5442    3.2010    0.0000 F   0  0  0  0  0  0  0  0  0  0  0  0
  1  2  2  0
  2  3  2  0
  2  4  1  0
  2  5  1  0
  5  6  1  0
  6  7  1  0
  6  8  1  0
  6  9  1  0
  9 10  1  0
  9 11  1  0
  9 12  1  0
 12 13  1  0
 12 14  1  0
 12 15  1  0
 15 16  1  0
 15 17  1  0
 15 18  1  0
 18 19  1  0
 18 20  1  0
 18 21  1  0
 21 22  1  0
 21 23  1  0
 21 24  1  0
M  END
$$$$

     RDKit          2D

 42 41  0  0  0  0  0  0  0  0999 V2000
    7.0981    4.0981    0.0000 C   0  0  0  0  0  0  0  0  0  0  0  0
    5.7990    3.3481    0.0000 N   0  0  0  0  0  0  0  0  0  0  0  0
    4.5000    2.5981    0.0000 C   0  0  0  0  0  0  0  0  0  0  0  0
    6.5490    2.0490    0.0000 C   0  0  0  0  0  0  0  0  0  0  0  0
    5.7990    0.7500    0.0000 C   0  0  0  0  0  0  0  0  0  0  0  0
    6.5490   -0.5490    0.0000 O   0  0  0  0  0  0  0  0  0  0  0  0
    5.0490    4.6471    0.0000 C   0  0  0  0  0  0  0  0  0  0  0  0
    3.5490    4.6471    0.0000 C   0  0  0  0  0  0  0  0  0  0  0  0
    2.7990    3.3481    0.0000 O   0  0  0  0  0  0  0  0  0  0  0  0
    2.7990    5.9462    0.0000 C   0  0  0  0  0  0  0  0  0  0  0  0
    1.2990    5.9462    0.0000 N   0  0  0  0  0  0  0  0  0  0  0  0
    0.5490    7.2452    0.0000 S   0  0  0  0  0  0  0  0  0  0  0  0
    1.8481    7.9952    0.0000 O   0  0  0  0  0  0  0  0  0  0  0  0
   -0.0876    6.7654    0.0000 O   0  0  0  0  0  0  0  0  0  0  0  0
   -0.2010    8.5442    0.0000 C   0  0  0  0  0  0  0  0  0  0  0  0
    1.0981    9.2942    0.0000 F   0  0  0  0  0  0  0  0  0  0  0  0
   -0.9510    9.8433    0.0000 F   0  0  0  0  0  0  0  0  0  0  0  0
   -1.5000    7.7942    0.0000 C   0  0  0  0  0  0  0  0  0  0  0  0
   -1.1539    6.9789    0.0000 F   0  0  0  0  0  0  0  0  0  0  0  0
   -2.2500    9.0933    0.0000 F   0  0  0  0  0  0  0  0  0  0  0  0
   -2.7990    7.0442    0.0000 C   0  0  0  0  0  0  0  0  0  0  0  0
   -2.0490    5.7452    0.0000 F   0  0  0  0  0  0  0  0  0  0  0  0
   -3.5490    8.3433    0.0000 F   0  0  0  0  0  0  0  0  0  0  0  0
   -4.0981    6.2942    0.0000 C   0  0  0  0  0  0  0  0  0  0  0  0
   -4.8481    7.5933    0.0000 F   0  0  0  0  0  0  0  0  0  0  0  0
   -3.3481    4.9952    0.0000 F   0  0  0  0  0  0  0  0  0  0  0  0
   -5.3971    5.5442    0.0000 C   0  0  0  0  0  0  0  0  0  0  0  0
   -4.6471    4.2452    0.0000 F   0  0  0  0  0  0  0  0  0  0  0  0
   -6.1471    6.8433    0.0000 F   0  0  0  0  0  0  0  0  0  0  0  0
   -6.6962    4.7942    0.0000 C   0  0  0  0  0  0  0  0  0  0  0  0
   -5.9462    3.4952    0.0000 F   0  0  0  0  0  0  0  0  0  0  0  0
   -7.4462    6.0933    0.0000 F   0  0  0  0  0  0  0  0  0  0  0  0
   -7.9952    4.0442    0.0000 C   0  0  0  0  0  0  0  0  0  0  0  0
   -8.7452    5.3433    0.0000 F   0  0  0  0  0  0  0  0  0  0  0  0
   -7.2452    2.7452    0.0000 F   0  0  0  0  0  0  0  0  0  0  0  0
   -9.2942    3.2942    0.0000 C   0  0  0  0  0  0  0  0  0  0  0  0
   -8.5442    1.9952    0.0000 F   0  0  0  0  0  0  0  0  0  0  0  0
  -10.0442    4.5933    0.0000 F   0  0  0  0  0  0  0  0  0  0  0  0
  -10.5933    2.5442    0.0000 C   0  0  0  0  0  0  0  0  0  0  0  0
  -11.8923    1.7942    0.0000 F   0  0  0  0  0  0  0  0  0  0  0  0
  -11.3433    3.8433    0.0000 F   0  0  0  0  0  0  0  0  0  0  0  0
   -9.8433    1.2452    0.0000 F   0  0  0  0  0  0  0  0  0  0  0  0
  1  2  1  0
  2  3  1  0
  2  4  1  0
  4  5  1  0
  5  6  1  0
  2  7  1  0
  7  8  1  0
  8  9  1  0
  8 10  1  0
 10 11  1  0
 11 12  1  0
 12 13  2  0
 12 14  2  0
 12 15  1  0
 15 16  1  0
 15 17  1  0
 15 18  1  0
 18 19  1  0
 18 20  1  0
 18 21  1  0
 21 22  1  0
 21 23  1  0
 21 24  1  0
 24 25  1  0
 24 26  1  0
 24 27  1  0
 27 28  1  0
 27 29  1  0
 27 30  1  0
 30 31  1  0
 30 32  1  0
 30 33  1  0
 33 34  1  0
 33 35  1  0
 33 36  1  0
 36 37  1  0
 36 38  1  0
 36 39  1  0
 39 40  1  0
 39 41  1  0
 39 42  1  0
M  CHG  1   2   1
M  END
$$$$

     RDKit          2D

 44 43  0  0  0  0  0  0  0  0999 V2000
    7.0981    4.0981    0.0000 C   0  0  0  0  0  0  0  0  0  0  0  0
    5.7990    3.3481    0.0000 N   0  0  0  0  0  0  0  0  0  0  0  0
    4.5000    2.5981    0.0000 C   0  0  0  0  0  0  0  0  0  0  0  0
    5.0490    4.6471    0.0000 C   0  0  0  0  0  0  0  0  0  0  0  0
    3.5490    4.6471    0.0000 C   0  0  0  0  0  0  0  0  0  0  0  0
    2.7990    5.9462    0.0000 O   0  0  0  0  0  0  0  0  0  0  0  0
    6.5490    2.0490    0.0000 C   0  0  0  0  0  0  0  0  0  0  0  0
    5.7990    0.7500    0.0000 C   0  0  0  0  0  0  0  0  0  0  0  0
    6.5490   -0.5490    0.0000 C   0  0  0  0  0  0  0  0  0  0  0  0
    5.7990   -1.8481    0.0000 N   0  0  0  0  0  0  0  0  0  0  0  0
    6.5490   -3.1471    0.0000 S   0  0  0  0  0  0  0  0  0  0  0  0
    7.8481   -2.3971    0.0000 O   0  0  0  0  0  0  0  0  0  0  0  0
    5.8152   -3.4586    0.0000 O   0  0  0  0  0  0  0  0  0  0  0  0
    7.2990   -4.4462    0.0000 C   0  0  0  0  0  0  0  0  0  0  0  0
    8.5981   -3.6962    0.0000 F   0  0  0  0  0  0  0  0  0  0  0  0
    8.0490   -5.7452    0.0000 F   0  0  0  0  0  0  0  0  0  0  0  0
    6.0000   -5.1962    0.0000 C   0  0  0  0  0  0  0  0  0  0  0  0
    5.4669   -4.4888    0.0000 F   0  0  0  0  0  0  0  0  0  0  0  0
    6.7500   -6.4952    0.0000 F   0  0  0  0  0  0  0  0  0  0  0  0
    4.7010   -5.9462    0.0000 C   0  0  0  0  0  0  0  0  0  0  0  0
    5.4510   -7.2452    0.0000 F   0  0  0  0  0  0  0  0  0  0  0  0
    3.9510   -4.6471    0.0000 F   0  0  0  0  0  0  0  0  0  0  0  0
    3.4019   -6.6962    0.0000 C   0  0  0  0  0  0  0  0  0  0  0  0
    2.6519   -5.3971    0.0000 F   0  0  0  0  0  0  0  0  0  0  0  0
    4.1519   -7.9952    0.0000 F   0  0  0  0  0  0  0  0  0  0  0  0
    2.1029   -7.4462    0.0000 C   0  0  0  0  0  0  0  0  0  0  0  0
    2.8529   -8.7452    0.0000 F   0  0  0  0  0  0  0  0  0  0  0  0
    1.3529   -6.1471    0.0000 F   0  0  0  0  0  0  0  0  0  0  0  0
    0.8038   -8.1962    0.0000 C   0  0  0  0  0  0  0  0  0  0  0  0
    1.5538   -9.4952    0.0000 F   0  0  0  0  0  0  0  0  0  0  0  0
    0.0538   -6.8971    0.0000 F   0  0  0  0  0  0  0  0  0  0  0  0
   -0.4952   -8.9462    0.0000 C   0  0  0  0  0  0  0  0  0  0  0  0
   -1.2452   -7.6471    0.0000 F   0  0  0  0  0  0  0  0  0  0  0  0
    0.2548  -10.2452    0.0000 F   0  0  0  0  0  0  0  0  0  0  0  0
   -1.7942   -9.6962    0.0000 C   0  0  0  0  0  0  0  0  0  0  0  0
   -1.0442  -10.9952    0.0000 F   0  0  0  0  0  0  0  0  0  0  0  0
   -2.5442   -8.3971    0.0000 F   0  0  0  0  0  0  0  0  0  0  0  0
   -3.0933  -10.4462    0.0000 C   0  0  0  0  0  0  0  0  0  0  0  0
   -3.8433   -9.1471    0.0000 F   0  0  0  0  0  0  0  0  0  0  0  0
   -2.3433  -11.7452    0.0000 F   0  0  0  0  0  0  0  0  0  0  0  0
   -4.3923  -11.1962    0.0000 C   0  0  0  0  0  0  0  0  0  0  0  0
   -5.6913  -11.9462    0.0000 F   0  0  0  0  0  0  0  0  0  0  0  0
   -3.6423  -12.4952    0.0000 F   0  0  0  0  0  0  0  0  0  0  0  0
   -5.1423   -9.8971    0.0000 F   0  0  0  0  0  0  0  0  0  0  0  0
  1  2  1  0
  2  3  1  0
  2  4  1  0
  4  5  1  0
  5  6  1  0
  2  7  1  0
  7  8  1  0
  8  9  1  0
  9 10  1  0
 10 11  1  0
 11 12  2  0
 11 13  2  0
 11 14  1  0
 14 15  1  0
 14 16  1  0
 14 17  1  0
 17 18  1  0
 17 19  1  0
 17 20  1  0
 20 21  1  0
 20 22  1  0
 20 23  1  0
 23 24  1  0
 23 25  1  0
 23 26  1  0
 26 27  1  0
 26 28  1  0
 26 29  1  0
 29 30  1  0
 29 31  1  0
 29 32  1  0
 32 33  1  0
 32 34  1  0
 32 35  1  0
 35 36  1  0
 35 37  1  0
 35 38  1  0
 38 39  1  0
 38 40  1  0
 38 41  1  0
 41 42  1  0
 41 43  1  0
 41 44  1  0
M  CHG  1   2   1
M  END
$$$$

     RDKit          2D

 50 49  0  0  0  0  0  0  0  0999 V2000
   14.5981    1.5000    0.0000 C   0  0  0  0  0  0  0  0  0  0  0  0
   13.2990    0.7500    0.0000 N   0  0  0  0  0  0  0  0  0  0  0  0
   12.0000   -0.0000    0.0000 C   0  0  0  0  0  0  0  0  0  0  0  0
   14.0490   -0.5490    0.0000 C   0  0  0  0  0  0  0  0  0  0  0  0
   13.2990   -1.8481    0.0000 C   0  0  0  0  0  0  0  0  0  0  0  0
   14.0490   -3.1471    0.0000 O   0  0  0  0  0  0  0  0  0  0  0  0
   12.5490    2.0490    0.0000 C   0  0  0  0  0  0  0  0  0  0  0  0
   11.0490    2.0490    0.0000 C   0  0  0  0  0  0  0  0  0  0  0  0
   10.2990    3.3481    0.0000 C   0  0  0  0  0  0  0  0  0  0  0  0
    8.7990    3.3481    0.0000 N   0  0  0  0  0  0  0  0  0  0  0  0
    8.0490    4.6471    0.0000 C   0  0  0  0  0  0  0  0  0  0  0  0
    6.5490    4.6471    0.0000 C   0  0  0  0  0  0  0  0  0  0  0  0
    5.7990    5.9462    0.0000 O   0  0  0  0  0  0  0  0  0  0  0  0
    8.0490    2.0490    0.0000 S   0  0  0  0  0  0  0  0  0  0  0  0
    9.3481    1.2990    0.0000 O   0  0  0  0  0  0  0  0  0  0  0  0
    7.4124    2.5288    0.0000 O   0  0  0  0  0  0  0  0  0  0  0  0
    7.2990    0.7500    0.0000 C   0  0  0  0  0  0  0  0  0  0  0  0
    8.5981    0.0000    0.0000 F   0  0  0  0  0  0  0  0  0  0  0  0
    6.5490   -0.5490    0.0000 F   0  0  0  0  0  0  0  0  0  0  0  0
    6.0000    1.5000    0.0000 C   0  0  0  0  0  0  0  0  0  0  0  0
    5.2500    0.2010    0.0000 F   0  0  0  0  0  0  0  0  0  0  0  0
    6.3461    2.3153    0.0000 F   0  0  0  0  0  0  0  0  0  0  0  0
    4.7010    2.2500    0.0000 C   0  0  0  0  0  0  0  0  0  0  0  0
    3.9510    0.9510    0.0000 F   0  0  0  0  0  0  0  0  0  0  0  0
    5.4510    3.5490    0.0000 F   0  0  0  0  0  0  0  0  0  0  0  0
    3.4019    3.0000    0.0000 C   0  0  0  0  0  0  0  0  0  0  0  0
    2.6519    1.7010    0.0000 F   0  0  0  0  0  0  0  0  0  0  0  0
    4.1519    4.2990    0.0000 F   0  0  0  0  0  0  0  0  0  0  0  0
    2.1029    3.7500    0.0000 C   0  0  0  0  0  0  0  0  0  0  0  0
    1.3529    2.4510    0.0000 F   0  0  0  0  0  0  0  0  0  0  0  0
    2.8529    5.0490    0.0000 F   0  0  0  0  0  0  0  0  0  0  0  0
    0.8038    4.5000    0.0000 C   0  0  0  0  0  0  0  0  0  0  0  0
    0.0538    3.2010    0.0000 F   0  0  0  0  0  0  0  0  0  0  0  0
    1.5538    5.7990    0.0000 F   0  0  0  0  0  0  0  0  0  0  0  0
   -0.4952    5.2500    0.0000 C   0  0  0  0  0  0  0  0  0  0  0  0
   -1.2452    3.9510    0.0000 F   0  0  0  0  0  0  0  0  0  0  0  0
    0.2548    6.5490    0.0000 F   0  0  0  0  0  0  0  0  0  0  0  0
   -1.7942    6.0000    0.0000 C   0  0  0  0  0  0  0  0  0  0  0  0
   -1.0442    7.2990    0.0000 F   0  0  0  0  0  0  0  0  0  0  0  0
   -2.5442    4.7010    0.0000 F   0  0  0  0  0  0  0  0  0  0  0  0
   -3.0933    6.7500    0.0000 C   0  0  0  0  0  0  0  0  0  0  0  0
   -3.8433    5.4510    0.0000 F   0  0  0  0  0  0  0  0  0  0  0  0
   -2.3433    8.0490    0.0000 F   0  0  0  0  0  0  0  0  0  0  0  0
   -4.3923    7.5000    0.0000 C   0  0  0  0  0  0  0  0  0  0  0  0
   -3.6423    8.7990    0.0000 F   0  0  0  0  0  0  0  0  0  0  0  0
   -5.1423    6.2010    0.0000 F   0  0  0  0  0  0  0  0  0  0  0  0
   -5.6913    8.2500    0.0000 C   0  0  0  0  0  0  0  0  0  0  0  0
   -6.9904    9.0000    0.0000 F   0  0  0  0  0  0  0  0  0  0  0  0
   -6.4413    6.9510    0.0000 F   0  0  0  0  0  0  0  0  0  0  0  0
   -4.9413    9.5490    0.0000 F   0  0  0  0  0  0  0  0  0  0  0  0
  1  2  1  0
  2  3  1  0
  2  4  1  0
  4  5  1  0
  5  6  1  0
  2  7  1  0
  7  8  1  0
  8  9  1  0
  9 10  1  0
 10 11  1  0
 11 12  1  0
 12 13  1  0
 10 14  1  0
 14 15  2  0
 14 16  2  0
 14 17  1  0
 17 18  1  0
 17 19  1  0
 17 20  1  0
 20 21  1  0
 20 22  1  0
 20 23  1  0
 23 24  1  0
 23 25  1  0
 23 26  1  0
 26 27  1  0
 26 28  1  0
 26 29  1  0
 29 30  1  0
 29 31  1  0
 29 32  1  0
 32 33  1  0
 32 34  1  0
 32 35  1  0
 35 36  1  0
 35 37  1  0
 35 38  1  0
 38 39  1  0
 38 40  1  0
 38 41  1  0
 41 42  1  0
 41 43  1  0
 41 44  1  0
 44 45  1  0
 44 46  1  0
 44 47  1  0
 47 48  1  0
 47 49  1  0
 47 50  1  0
M  CHG  1   2   1
M  END
$$$$

     RDKit          2D

 43 42  0  0  0  0  0  0  0  0999 V2000
    0.0000    0.0000    0.0000 C   0  0  0  0  0  0  0  0  0  0  0  0
    1.2990    0.7500    0.0000 N   0  0  0  0  0  0  0  0  0  0  0  0
    2.6798    1.3361    0.0000 C   0  0  0  0  0  0  0  0  0  0  0  0
    0.5490    2.0490    0.0000 C   0  0  0  0  0  0  0  0  0  0  0  0
    1.2990    3.3481    0.0000 C   0  0  0  0  0  0  0  0  0  0  0  0
    0.2570    4.4270    0.0000 O   0  0  0  0  0  0  0  0  0  0  0  0
    2.0490   -0.5490    0.0000 C   0  0  0  0  0  0  0  0  0  0  0  0
    3.5490   -0.5490    0.0000 C   0  0  0  0  0  0  0  0  0  0  0  0
    4.2990   -1.8481    0.0000 C   0  0  0  0  0  0  0  0  0  0  0  0
    5.7990   -1.8481    0.0000 N   0  0  0  0  0  0  0  0  0  0  0  0
    6.5490   -3.1471    0.0000 C   0  0  0  0  0  0  0  0  0  0  0  0
    8.0490   -3.1471    0.0000 C   0  0  0  0  0  0  0  0  0  0  0  0
    8.7990   -1.8481    0.0000 O   0  0  0  0  0  0  0  0  0  0  0  0
    8.7990   -4.4462    0.0000 C   0  0  0  0  0  0  0  0  0  0  0  0
   10.2990   -4.4462    0.0000 S   0  0  0  0  0  0  0  0  0  0  0  0
   10.2990   -5.9462    0.0000 O   0  0  0  0  0  0  0  0  0  0  0  0
   10.2990   -2.9462    0.0000 O   0  0  0  0  0  0  0  0  0  0  0  0
   11.7990   -4.4462    0.0000 O   0  0  0  0  0  0  0  0  0  0  0  0
    6.5490   -0.5490    0.0000 S   0  0  0  0  0  0  0  0  0  0  0  0
    5.8152   -0.2376    0.0000 O   0  0  0  0  0  0  0  0  0  0  0  0
    7.8481   -1.2990    0.0000 O   0  0  0  0  0  0  0  0  0  0  0  0
    7.2990    0.7500    0.0000 C   0  0  0  0  0  0  0  0  0  0  0  0
    8.5981    0.0000    0.0000 F   0  0  0  0  0  0  0  0  0  0  0  0
    8.0490    2.0490    0.0000 F   0  0  0  0  0  0  0  0  0  0  0  0
    6.0000    1.5000    0.0000 C   0  0  0  0  0  0  0  0  0  0  0  0
    5.4669    0.7926    0.0000 F   0  0  0  0  0  0  0  0  0  0  0  0
    6.7500    2.7990    0.0000 F   0  0  0  0  0  0  0  0  0  0  0  0
    4.7010    2.2500    0.0000 C   0  0  0  0  0  0  0  0  0  0  0  0
    3.9510    0.9510    0.0000 F   0  0  0  0  0  0  0  0  0  0  0  0
    5.4510    3.5490    0.0000 F   0  0  0  0  0  0  0  0  0  0  0  0
    3.4019    3.0000    0.0000 C   0  0  0  0  0  0  0  0  0  0  0  0
    2.8159    1.6192    0.0000 F   0  0  0  0  0  0  0  0  0  0  0  0
    4.1519    4.2990    0.0000 F   0  0  0  0  0  0  0  0  0  0  0  0
    2.1029    3.7500    0.0000 C   0  0  0  0  0  0  0  0  0  0  0  0
    2.8529    5.0490    0.0000 F   0  0  0  0  0  0  0  0  0  0  0  0
    1.3529    2.4510    0.0000 F   0  0  0  0  0  0  0  0  0  0  0  0
    0.8038    4.5000    0.0000 C   0  0  0  0  0  0  0  0  0  0  0  0
    1.5538    5.7990    0.0000 F   0  0  0  0  0  0  0  0  0  0  0  0
    0.0538    3.2010    0.0000 F   0  0  0  0  0  0  0  0  0  0  0  0
   -0.4952    5.2500    0.0000 C   0  0  0  0  0  0  0  0  0  0  0  0
   -1.7942    6.0000    0.0000 F   0  0  0  0  0  0  0  0  0  0  0  0
   -1.2452    3.9510    0.0000 F   0  0  0  0  0  0  0  0  0  0  0  0
    0.2548    6.5490    0.0000 F   0  0  0  0  0  0  0  0  0  0  0  0
  1  2  1  0
  2  3  1  0
  2  4  1  0
  4  5  1  0
  5  6  1  0
  2  7  1  0
  7  8  1  0
  8  9  1  0
  9 10  1  0
 10 11  1  0
 11 12  1  0
 12 13  1  0
 12 14  1  0
 14 15  1  0
 15 16  2  0
 15 17  2  0
 15 18  1  0
 10 19  1  0
 19 20  2  0
 19 21  2  0
 19 22  1  0
 22 23  1  0
 22 24  1  0
 22 25  1  0
 25 26  1  0
 25 27  1  0
 25 28  1  0
 28 29  1  0
 28 30  1  0
 28 31  1  0
 31 32  1  0
 31 33  1  0
 31 34  1  0
 34 35  1  0
 34 36  1  0
 34 37  1  0
 37 38  1  0
 37 39  1  0
 37 40  1  0
 40 41  1  0
 40 42  1  0
 40 43  1  0
M  CHG  2   2   1  18  -1
M  END
$$$$

     RDKit          2D

 51 50  0  0  0  0  0  0  0  0999 V2000
   10.2990   -5.9462    0.0000 C   0  0  0  0  0  0  0  0  0  0  0  0
   10.2990   -4.4462    0.0000 N   0  0  0  0  0  0  0  0  0  0  0  0
   10.2990   -2.9462    0.0000 C   0  0  0  0  0  0  0  0  0  0  0  0
   11.7990   -4.4462    0.0000 C   0  0  0  0  0  0  0  0  0  0  0  0
   12.5490   -3.1471    0.0000 C   0  0  0  0  0  0  0  0  0  0  0  0
   14.0490   -3.1471    0.0000 O   0  0  0  0  0  0  0  0  0  0  0  0
    8.7990   -4.4462    0.0000 C   0  0  0  0  0  0  0  0  0  0  0  0
    8.0490   -3.1471    0.0000 C   0  0  0  0  0  0  0  0  0  0  0  0
    6.5490   -3.1471    0.0000 C   0  0  0  0  0  0  0  0  0  0  0  0
    5.7990   -1.8481    0.0000 N   0  0  0  0  0  0  0  0  0  0  0  0
    4.2990   -1.8481    0.0000 C   0  0  0  0  0  0  0  0  0  0  0  0
    3.5490   -0.5490    0.0000 C   0  0  0  0  0  0  0  0  0  0  0  0
    2.0490   -0.5490    0.0000 C   0  0  0  0  0  0  0  0  0  0  0  0
    1.2990    0.7500    0.0000 S   0  0  0  0  0  0  0  0  0  0  0  0
    0.0000   -0.0000    0.0000 O   0  0  0  0  0  0  0  0  0  0  0  0
    2.6798    1.3361    0.0000 O   0  0  0  0  0  0  0  0  0  0  0  0
    0.3963    1.9479    0.0000 O   0  0  0  0  0  0  0  0  0  0  0  0
    6.5490   -0.5490    0.0000 S   0  0  0  0  0  0  0  0  0  0  0  0
    7.8481   -1.2990    0.0000 O   0  0  0  0  0  0  0  0  0  0  0  0
    5.8152   -0.2376    0.0000 O   0  0  0  0  0  0  0  0  0  0  0  0
    7.2990    0.7500    0.0000 C   0  0  0  0  0  0  0  0  0  0  0  0
    8.5981    0.0000    0.0000 F   0  0  0  0  0  0  0  0  0  0  0  0
    8.0490    2.0490    0.0000 F   0  0  0  0  0  0  0  0  0  0  0  0
    6.0000    1.5000    0.0000 C   0  0  0  0  0  0  0  0  0  0  0  0
    5.4669    0.7926    0.0000 F   0  0  0  0  0  0  0  0  0  0  0  0
    6.7500    2.7990    0.0000 F   0  0  0  0  0  0  0  0  0  0  0  0
    4.7010    2.2500    0.0000 C   0  0  0  0  0  0  0  0  0  0  0  0
    3.9510    0.9510    0.0000 F   0  0  0  0  0  0  0  0  0  0  0  0
    5.4510    3.5490    0.0000 F   0  0  0  0  0  0  0  0  0  0  0  0
    3.4019    3.0000    0.0000 C   0  0  0  0  0  0  0  0  0  0  0  0
    2.8159    1.6192    0.0000 F   0  0  0  0  0  0  0  0  0  0  0  0
    4.1519    4.2990    0.0000 F   0  0  0  0  0  0  0  0  0  0  0  0
    2.1029    3.7500    0.0000 C   0  0  0  0  0  0  0  0  0  0  0  0
    1.2001    2.5521    0.0000 F   0  0  0  0  0  0  0  0  0  0  0  0
    2.8529    5.0490    0.0000 F   0  0  0  0  0  0  0  0  0  0  0  0
    0.8038    4.5000    0.0000 C   0  0  0  0  0  0  0  0  0  0  0  0
    1.5538    5.7990    0.0000 F   0  0  0  0  0  0  0  0  0  0  0  0
    0.0538    3.2010    0.0000 F   0  0  0  0  0  0  0  0  0  0  0  0
   -0.4952    5.2500    0.0000 C   0  0  0  0  0  0  0  0  0  0  0  0
   -1.2452    3.9510    0.0000 F   0  0  0  0  0  0  0  0  0  0  0  0
    0.2548    6.5490    0.0000 F   0  0  0  0  0  0  0  0  0  0  0  0
   -1.7942    6.0000    0.0000 C   0  0  0  0  0  0  0  0  0  0  0  0
   -1.0442    7.2990    0.0000 F   0  0  0  0  0  0  0  0  0  0  0  0
   -2.5442    4.7010    0.0000 F   0  0  0  0  0  0  0  0  0  0  0  0
   -3.0933    6.7500    0.0000 C   0  0  0  0  0  0  0  0  0  0  0  0
   -3.8433    5.4510    0.0000 F   0  0  0  0  0  0  0  0  0  0  0  0
   -2.3433    8.0490    0.0000 F   0  0  0  0  0  0  0  0  0  0  0  0
   -4.3923    7.5000    0.0000 C   0  0  0  0  0  0  0  0  0  0  0  0
   -5.6913    8.2500    0.0000 F   0  0  0  0  0  0  0  0  0  0  0  0
   -3.6423    8.7990    0.0000 F   0  0  0  0  0  0  0  0  0  0  0  0
   -5.1423    6.2010    0.0000 F   0  0  0  0  0  0  0  0  0  0  0  0
  1  2  1  0
  2  3  1  0
  2  4  1  0
  4  5  1  0
  5  6  1  0
  2  7  1  0
  7  8  1  0
  8  9  1  0
  9 10  1  0
 10 11  1  0
 11 12  1  0
 12 13  1  0
 13 14  1  0
 14 15  2  0
 14 16  2  0
 14 17  1  0
 10 18  1  0
 18 19  2  0
 18 20  2  0
 18 21  1  0
 21 22  1  0
 21 23  1  0
 21 24  1  0
 24 25  1  0
 24 26  1  0
 24 27  1  0
 27 28  1  0
 27 29  1  0
 27 30  1  0
 30 31  1  0
 30 32  1  0
 30 33  1  0
 33 34  1  0
 33 35  1  0
 33 36  1  0
 36 37  1  0
 36 38  1  0
 36 39  1  0
 39 40  1  0
 39 41  1  0
 39 42  1  0
 42 43  1  0
 42 44  1  0
 42 45  1  0
 45 46  1  0
 45 47  1  0
 45 48  1  0
 48 49  1  0
 48 50  1  0
 48 51  1  0
M  CHG  2   2   1  17  -1
M  END
$$$$

     RDKit          2D

 46 45  0  0  0  0  0  0  0  0999 V2000
    0.0000    0.0000    0.0000 C   0  0  0  0  0  0  0  0  0  0  0  0
    1.2990    0.7500    0.0000 N   0  0  0  0  0  0  0  0  0  0  0  0
    2.5981    1.5000    0.0000 C   0  0  0  0  0  0  0  0  0  0  0  0
    2.0490   -0.5490    0.0000 C   0  0  0  0  0  0  0  0  0  0  0  0
    0.5490    2.0490    0.0000 C   0  0  0  0  0  0  0  0  0  0  0  0
    1.2990    3.3481    0.0000 C   0  0  0  0  0  0  0  0  0  0  0  0
    0.5490    4.6471    0.0000 C   0  0  0  0  0  0  0  0  0  0  0  0
    1.2990    5.9462    0.0000 N   0  0  0  0  0  0  0  0  0  0  0  0
    0.5490    7.2452    0.0000 C   0  0  0  0  0  0  0  0  0  0  0  0
   -0.9510    7.2452    0.0000 O   0  0  0  0  0  0  0  0  0  0  0  0
    1.2990    8.5442    0.0000 C   0  0  0  0  0  0  0  0  0  0  0  0
    0.5490    9.8433    0.0000 S   0  0  0  0  0  0  0  0  0  0  0  0
   -0.9510    9.8433    0.0000 O   0  0  0  0  0  0  0  0  0  0  0  0
    1.2990   11.1423    0.0000 C   0  0  0  0  0  0  0  0  0  0  0  0
    0.5490   12.4413    0.0000 C   0  0  0  0  0  0  0  0  0  0  0  0
    1.2990   13.7404    0.0000 C   0  0  0  0  0  0  0  0  0  0  0  0
    0.0000   14.4904    0.0000 F   0  0  0  0  0  0  0  0  0  0  0  0
    2.5981   12.9904    0.0000 F   0  0  0  0  0  0  0  0  0  0  0  0
    2.0490   15.0394    0.0000 C   0  0  0  0  0  0  0  0  0  0  0  0
    3.3481   14.2894    0.0000 F   0  0  0  0  0  0  0  0  0  0  0  0
    0.7500   15.7894    0.0000 F   0  0  0  0  0  0  0  0  0  0  0  0
    2.7990   16.3385    0.0000 C   0  0  0  0  0  0  0  0  0  0  0  0
    1.5000   17.0885    0.0000 F   0  0  0  0  0  0  0  0  0  0  0  0
    4.0981   15.5885    0.0000 F   0  0  0  0  0  0  0  0  0  0  0  0
    3.5490   17.6375    0.0000 C   0  0  0  0  0  0  0  0  0  0  0  0
    4.8481   16.8875    0.0000 F   0  0  0  0  0  0  0  0  0  0  0  0
    2.2500   18.3875    0.0000 F   0  0  0  0  0  0  0  0  0  0  0  0
    4.2990   18.9365    0.0000 C   0  0  0  0  0  0  0  0  0  0  0  0
    3.0000   19.6865    0.0000 F   0  0  0  0  0  0  0  0  0  0  0  0
    5.5981   18.1865    0.0000 F   0  0  0  0  0  0  0  0  0  0  0  0
    5.0490   20.2356    0.0000 C   0  0  0  0  0  0  0  0  0  0  0  0
    6.3481   19.4856    0.0000 F   0  0  0  0  0  0  0  0  0  0  0  0
    3.7500   20.9856    0.0000 F   0  0  0  0  0  0  0  0  0  0  0  0
    5.7990   21.5346    0.0000 C   0  0  0  0  0  0  0  0  0  0  0  0
    4.5000   22.2846    0.0000 F   0  0  0  0  0  0  0  0  0  0  0  0
    7.0981   20.7846    0.0000 F   0  0  0  0  0  0  0  0  0  0  0  0
    6.5490   22.8336    0.0000 C   0  0  0  0  0  0  0  0  0  0  0  0
    7.8481   22.0836    0.0000 F   0  0  0  0  0  0  0  0  0  0  0  0
    5.2500   23.5836    0.0000 F   0  0  0  0  0  0  0  0  0  0  0  0
    7.2990   24.1327    0.0000 C   0  0  0  0  0  0  0  0  0  0  0  0
    6.0000   24.8827    0.0000 F   0  0  0  0  0  0  0  0  0  0  0  0
    8.5981   23.3827    0.0000 F   0  0  0  0  0  0  0  0  0  0  0  0
    8.0490   25.4317    0.0000 C   0  0  0  0  0  0  0  0  0  0  0  0
    8.7990   26.7308    0.0000 F   0  0  0  0  0  0  0  0  0  0  0  0
    9.3481   24.6817    0.0000 F   0  0  0  0  0  0  0  0  0  0  0  0
    6.7500   26.1817    0.0000 F   0  0  0  0  0  0  0  0  0  0  0  0
  1  2  1  0
  2  3  1  0
  2  4  1  0
  2  5  1  0
  5  6  1  0
  6  7  1  0
  7  8  1  0
  8  9  1  0
  9 10  2  0
  9 11  1  0
 11 12  1  0
 12 13  2  0
 12 14  1  0
 14 15  1  0
 15 16  1  0
 16 17  1  0
 16 18  1  0
 16 19  1  0
 19 20  1  0
 19 21  1  0
 19 22  1  0
 22 23  1  0
 22 24  1  0
 22 25  1  0
 25 26  1  0
 25 27  1  0
 25 28  1  0
 28 29  1  0
 28 30  1  0
 28 31  1  0
 31 32  1  0
 31 33  1  0
 31 34  1  0
 34 35  1  0
 34 36  1  0
 34 37  1  0
 37 38  1  0
 37 39  1  0
 37 40  1  0
 40 41  1  0
 40 42  1  0
 40 43  1  0
 43 44  1  0
 43 45  1  0
 43 46  1  0
M  CHG  1   2   1
M  END
$$$$

     RDKit          2D

 43 42  0  0  0  0  0  0  0  0999 V2000
   -1.5000    1.5000    0.0000 O   0  0  0  0  0  0  0  0  0  0  0  0
   -0.0000    1.5000    0.0000 S   0  0  0  0  0  0  0  0  0  0  0  0
    0.7912    1.5972    0.0000 O   0  0  0  0  0  0  0  0  0  0  0  0
   -0.0000    3.0000    0.0000 O   0  0  0  0  0  0  0  0  0  0  0  0
    0.0000    0.0000    0.0000 C   0  0  0  0  0  0  0  0  0  0  0  0
   -1.5000   -0.0000    0.0000 F   0  0  0  0  0  0  0  0  0  0  0  0
    0.0000   -1.5000    0.0000 F   0  0  0  0  0  0  0  0  0  0  0  0
    1.5000    0.0000    0.0000 C   0  0  0  0  0  0  0  0  0  0  0  0
    1.6080    0.8791    0.0000 F   0  0  0  0  0  0  0  0  0  0  0  0
    1.5000   -1.5000    0.0000 F   0  0  0  0  0  0  0  0  0  0  0  0
    3.0000    0.0000    0.0000 C   0  0  0  0  0  0  0  0  0  0  0  0
    3.0000   -1.5000    0.0000 F   0  0  0  0  0  0  0  0  0  0  0  0
    3.0000    1.5000    0.0000 F   0  0  0  0  0  0  0  0  0  0  0  0
    4.5000    0.0000    0.0000 C   0  0  0  0  0  0  0  0  0  0  0  0
    4.5000    1.5000    0.0000 F   0  0  0  0  0  0  0  0  0  0  0  0
    4.5000   -1.5000    0.0000 F   0  0  0  0  0  0  0  0  0  0  0  0
    6.0000    0.0000    0.0000 C   0  0  0  0  0  0  0  0  0  0  0  0
    6.0000   -1.5000    0.0000 F   0  0  0  0  0  0  0  0  0  0  0  0
    6.0000    1.5000    0.0000 F   0  0  0  0  0  0  0  0  0  0  0  0
    7.5000    0.0000    0.0000 C   0  0  0  0  0  0  0  0  0  0  0  0
    7.5000   -1.5000    0.0000 F   0  0  0  0  0  0  0  0  0  0  0  0
    7.5000    1.5000    0.0000 F   0  0  0  0  0  0  0  0  0  0  0  0
    9.0000    0.0000    0.0000 C   0  0  0  0  0  0  0  0  0  0  0  0
    9.0000    1.5000    0.0000 F   0  0  0  0  0  0  0  0  0  0  0  0
    9.0000   -1.5000    0.0000 F   0  0  0  0  0  0  0  0  0  0  0  0
   10.5000    0.0000    0.0000 C   0  0  0  0  0  0  0  0  0  0  0  0
   10.5000   -1.5000    0.0000 F   0  0  0  0  0  0  0  0  0  0  0  0
   10.5000    1.5000    0.0000 F   0  0  0  0  0  0  0  0  0  0  0  0
   12.0000    0.0000    0.0000 C   0  0  0  0  0  0  0  0  0  0  0  0
   12.0000    1.5000    0.0000 F   0  0  0  0  0  0  0  0  0  0  0  0
   12.0000   -1.5000    0.0000 F   0  0  0  0  0  0  0  0  0  0  0  0
   13.5000    0.0000    0.0000 C   0  0  0  0  0  0  0  0  0  0  0  0
   13.1370   -1.4554    0.0000 F   0  0  0  0  0  0  0  0  0  0  0  0
   13.5000    1.5000    0.0000 F   0  0  0  0  0  0  0  0  0  0  0  0
   15.0000    0.0000    0.0000 C   0  0  0  0  0  0  0  0  0  0  0  0
   16.4888    0.1828    0.0000 F   0  0  0  0  0  0  0  0  0  0  0  0
   15.0000    1.5000    0.0000 F   0  0  0  0  0  0  0  0  0  0  0  0
   15.0000   -1.5000    0.0000 S   0  0  0  0  0  0  0  0  0  0  0  0
   16.3808   -0.9139    0.0000 F   0  0  0  0  0  0  0  0  0  0  0  0
   16.2990   -2.2500    0.0000 F   0  0  0  0  0  0  0  0  0  0  0  0
   13.8021   -2.4028    0.0000 F   0  0  0  0  0  0  0  0  0  0  0  0
   15.0000   -3.0000    0.0000 F   0  0  0  0  0  0  0  0  0  0  0  0
   13.5184   -1.2655    0.0000 F   0  0  0  0  0  0  0  0  0  0  0  0
  1  2  2  0
  2  3  2  0
  2  4  1  0
  2  5  1  0
  5  6  1  0
  5  7  1  0
  5  8  1  0
  8  9  1  0
  8 10  1  0
  8 11  1  0
 11 12  1  0
 11 13  1  0
 11 14  1  0
 14 15  1  0
 14 16  1  0
 14 17  1  0
 17 18  1  0
 17 19  1  0
 17 20  1  0
 20 21  1  0
 20 22  1  0
 20 23  1  0
 23 24  1  0
 23 25  1  0
 23 26  1  0
 26 27  1  0
 26 28  1  0
 26 29  1  0
 29 30  1  0
 29 31  1  0
 29 32  1  0
 32 33  1  0
 32 34  1  0
 32 35  1  0
 35 36  1  0
 35 37  1  0
 35 38  1  0
 38 39  1  0
 38 40  1  0
 38 41  1  0
 38 42  1  0
 38 43  1  0
M  END
$$$$

     RDKit          2D

 46 45  0  0  0  0  0  0  0  0999 V2000
    1.2990    2.2500    0.0000 O   0  0  0  0  0  0  0  0  0  0  0  0
    1.2990    0.7500    0.0000 C   0  0  0  0  0  0  0  0  0  0  0  0
    2.5981   -0.0000    0.0000 O   0  0  0  0  0  0  0  0  0  0  0  0
    0.0000    0.0000    0.0000 C   0  0  0  0  0  0  0  0  0  0  0  0
   -1.2990    0.7500    0.0000 C   0  0  0  0  0  0  0  0  0  0  0  0
   -2.5981    0.0000    0.0000 S   0  0  0  0  0  0  0  0  0  0  0  0
   -2.5981   -1.5000    0.0000 O   0  0  0  0  0  0  0  0  0  0  0  0
   -3.8971    0.7500    0.0000 C   0  0  0  0  0  0  0  0  0  0  0  0
   -5.1962    0.0000    0.0000 C   0  0  0  0  0  0  0  0  0  0  0  0
   -6.4952    0.7500    0.0000 C   0  0  0  0  0  0  0  0  0  0  0  0
   -7.2452   -0.5490    0.0000 F   0  0  0  0  0  0  0  0  0  0  0  0
   -5.7452    2.0490    0.0000 F   0  0  0  0  0  0  0  0  0  0  0  0
   -7.7942    1.5000    0.0000 C   0  0  0  0  0  0  0  0  0  0  0  0
   -7.0442    2.7990    0.0000 F   0  0  0  0  0  0  0  0  0  0  0  0
   -8.5442    0.2010    0.0000 F   0  0  0  0  0  0  0  0  0  0  0  0
   -9.0933    2.2500    0.0000 C   0  0  0  0  0  0  0  0  0  0  0  0
   -9.8433    0.9510    0.0000 F   0  0  0  0  0  0  0  0  0  0  0  0
   -8.3433    3.5490    0.0000 F   0  0  0  0  0  0  0  0  0  0  0  0
  -10.3923    3.0000    0.0000 C   0  0  0  0  0  0  0  0  0  0  0  0
   -9.6423    4.2990    0.0000 F   0  0  0  0  0  0  0  0  0  0  0  0
  -11.1423    1.7010    0.0000 F   0  0  0  0  0  0  0  0  0  0  0  0
  -11.6913    3.7500    0.0000 C   0  0  0  0  0  0  0  0  0  0  0  0
  -12.4413    2.4510    0.0000 F   0  0  0  0  0  0  0  0  0  0  0  0
  -10.9413    5.0490    0.0000 F   0  0  0  0  0  0  0  0  0  0  0  0
  -12.9904    4.5000    0.0000 C   0  0  0  0  0  0  0  0  0  0  0  0
  -12.2404    5.7990    0.0000 F   0  0  0  0  0  0  0  0  0  0  0  0
  -13.7404    3.2010    0.0000 F   0  0  0  0  0  0  0  0  0  0  0  0
  -14.2894    5.2500    0.0000 C   0  0  0  0  0  0  0  0  0  0  0  0
  -15.0394    3.9510    0.0000 F   0  0  0  0  0  0  0  0  0  0  0  0
  -13.5394    6.5490    0.0000 F   0  0  0  0  0  0  0  0  0  0  0  0
  -15.5885    6.0000    0.0000 C   0  0  0  0  0  0  0  0  0  0  0  0
  -14.8385    7.2990    0.0000 F   0  0  0  0  0  0  0  0  0  0  0  0
  -16.3385    4.7010    0.0000 F   0  0  0  0  0  0  0  0  0  0  0  0
  -16.8875    6.7500    0.0000 C   0  0  0  0  0  0  0  0  0  0  0  0
  -17.6375    5.4510    0.0000 F   0  0  0  0  0  0  0  0  0  0  0  0
  -16.1375    8.0490    0.0000 F   0  0  0  0  0  0  0  0  0  0  0  0
  -18.1865    7.5000    0.0000 C   0  0  0  0  0  0  0  0  0  0  0  0
  -17.4365    8.7990    0.0000 F   0  0  0  0  0  0  0  0  0  0  0  0
  -18.9365    6.2010    0.0000 F   0  0  0  0  0  0  0  0  0  0  0  0
  -19.4856    8.2500    0.0000 C   0  0  0  0  0  0  0  0  0  0  0  0
  -20.2356    6.9510    0.0000 F   0  0  0  0  0  0  0  0  0  0  0  0
  -18.7356    9.5490    0.0000 F   0  0  0  0  0  0  0  0  0  0  0  0
  -20.7846    9.0000    0.0000 C   0  0  0  0  0  0  0  0  0  0  0  0
  -22.0836    9.7500    0.0000 F   0  0  0  0  0  0  0  0  0  0  0  0
  -20.0346   10.2990    0.0000 F   0  0  0  0  0  0  0  0  0  0  0  0
  -21.5346    7.7010    0.0000 F   0  0  0  0  0  0  0  0  0  0  0  0
  1  2  2  0
  2  3  1  0
  2  4  1  0
  4  5  1  0
  5  6  1  0
  6  7  2  0
  6  8  1  0
  8  9  1  0
  9 10  1  0
 10 11  1  0
 10 12  1  0
 10 13  1  0
 13 14  1  0
 13 15  1  0
 13 16  1  0
 16 17  1  0
 16 18  1  0
 16 19  1  0
 19 20  1  0
 19 21  1  0
 19 22  1  0
 22 23  1  0
 22 24  1  0
 22 25  1  0
 25 26  1  0
 25 27  1  0
 25 28  1  0
 28 29  1  0
 28 30  1  0
 28 31  1  0
 31 32  1  0
 31 33  1  0
 31 34  1  0
 34 35  1  0
 34 36  1  0
 34 37  1  0
 37 38  1  0
 37 39  1  0
 37 40  1  0
 40 41  1  0
 40 42  1  0
 40 43  1  0
 43 44  1  0
 43 45  1  0
 43 46  1  0
M  END
$$$$

     RDKit          2D

 44 43  0  0  0  0  0  0  0  0999 V2000
    0.0000    0.0000    0.0000 C   0  0  0  0  0  0  0  0  0  0  0  0
    1.2990    0.7500    0.0000 N   0  0  0  0  0  0  0  0  0  0  0  0
    2.5981    1.5000    0.0000 C   0  0  0  0  0  0  0  0  0  0  0  0
    2.0490   -0.5490    0.0000 C   0  0  0  0  0  0  0  0  0  0  0  0
    0.5490    2.0490    0.0000 C   0  0  0  0  0  0  0  0  0  0  0  0
    1.2990    3.3481    0.0000 C   0  0  0  0  0  0  0  0  0  0  0  0
    2.7990    3.3481    0.0000 O   0  0  0  0  0  0  0  0  0  0  0  0
    0.5490    4.6471    0.0000 C   0  0  0  0  0  0  0  0  0  0  0  0
    1.2990    5.9462    0.0000 S   0  0  0  0  0  0  0  0  0  0  0  0
    2.5981    5.1962    0.0000 O   0  0  0  0  0  0  0  0  0  0  0  0
    0.0000    6.6962    0.0000 O   0  0  0  0  0  0  0  0  0  0  0  0
    2.0490    7.2452    0.0000 C   0  0  0  0  0  0  0  0  0  0  0  0
    3.5490    7.2452    0.0000 C   0  0  0  0  0  0  0  0  0  0  0  0
    4.2990    8.5442    0.0000 C   0  0  0  0  0  0  0  0  0  0  0  0
    5.5981    7.7942    0.0000 F   0  0  0  0  0  0  0  0  0  0  0  0
    3.0000    9.2942    0.0000 F   0  0  0  0  0  0  0  0  0  0  0  0
    5.0490    9.8433    0.0000 C   0  0  0  0  0  0  0  0  0  0  0  0
    3.7500   10.5933    0.0000 F   0  0  0  0  0  0  0  0  0  0  0  0
    6.3481    9.0933    0.0000 F   0  0  0  0  0  0  0  0  0  0  0  0
    5.7990   11.1423    0.0000 C   0  0  0  0  0  0  0  0  0  0  0  0
    7.0981   10.3923    0.0000 F   0  0  0  0  0  0  0  0  0  0  0  0
    4.5000   11.8923    0.0000 F   0  0  0  0  0  0  0  0  0  0  0  0
    6.5490   12.4413    0.0000 C   0  0  0  0  0  0  0  0  0  0  0  0
    5.2500   13.1913    0.0000 F   0  0  0  0  0  0  0  0  0  0  0  0
    7.8481   11.6913    0.0000 F   0  0  0  0  0  0  0  0  0  0  0  0
    7.2990   13.7404    0.0000 C   0  0  0  0  0  0  0  0  0  0  0  0
    8.5981   12.9904    0.0000 F   0  0  0  0  0  0  0  0  0  0  0  0
    6.0000   14.4904    0.0000 F   0  0  0  0  0  0  0  0  0  0  0  0
    8.0490   15.0394    0.0000 C   0  0  0  0  0  0  0  0  0  0  0  0
    6.7500   15.7894    0.0000 F   0  0  0  0  0  0  0  0  0  0  0  0
    9.3481   14.2894    0.0000 F   0  0  0  0  0  0  0  0  0  0  0  0
    8.7990   16.3385    0.0000 C   0  0  0  0  0  0  0  0  0  0  0  0
   10.0981   15.5885    0.0000 F   0  0  0  0  0  0  0  0  0  0  0  0
    7.5000   17.0885    0.0000 F   0  0  0  0  0  0  0  0  0  0  0  0
    9.5490   17.6375    0.0000 C   0  0  0  0  0  0  0  0  0  0  0  0
    8.2500   18.3875    0.0000 F   0  0  0  0  0  0  0  0  0  0  0  0
   10.8481   16.8875    0.0000 F   0  0  0  0  0  0  0  0  0  0  0  0
   10.2990   18.9365    0.0000 C   0  0  0  0  0  0  0  0  0  0  0  0
   11.5981   18.1865    0.0000 F   0  0  0  0  0  0  0  0  0  0  0  0
    9.0000   19.6865    0.0000 F   0  0  0  0  0  0  0  0  0  0  0  0
   11.0490   20.2356    0.0000 C   0  0  0  0  0  0  0  0  0  0  0  0
   11.7990   21.5346    0.0000 F   0  0  0  0  0  0  0  0  0  0  0  0
    9.7500   20.9856    0.0000 F   0  0  0  0  0  0  0  0  0  0  0  0
   12.3481   19.4856    0.0000 F   0  0  0  0  0  0  0  0  0  0  0  0
  1  2  1  0
  2  3  1  0
  2  4  1  0
  2  5  1  0
  5  6  1  0
  6  7  1  0
  6  8  1  0
  8  9  1  0
  9 10  2  0
  9 11  2  0
  9 12  1  0
 12 13  1  0
 13 14  1  0
 14 15  1  0
 14 16  1  0
 14 17  1  0
 17 18  1  0
 17 19  1  0
 17 20  1  0
 20 21  1  0
 20 22  1  0
 20 23  1  0
 23 24  1  0
 23 25  1  0
 23 26  1  0
 26 27  1  0
 26 28  1  0
 26 29  1  0
 29 30  1  0
 29 31  1  0
 29 32  1  0
 32 33  1  0
 32 34  1  0
 32 35  1  0
 35 36  1  0
 35 37  1  0
 35 38  1  0
 38 39  1  0
 38 40  1  0
 38 41  1  0
 41 42  1  0
 41 43  1  0
 41 44  1  0
M  CHG  1   2   1
M  END
$$$$

     RDKit          2D

 41 40  0  0  0  0  0  0  0  0999 V2000
    1.2990    2.2500    0.0000 O   0  0  0  0  0  0  0  0  0  0  0  0
    1.2990    0.7500    0.0000 C   0  0  0  0  0  0  0  0  0  0  0  0
    2.5981   -0.0000    0.0000 O   0  0  0  0  0  0  0  0  0  0  0  0
    0.0000    0.0000    0.0000 C   0  0  0  0  0  0  0  0  0  0  0  0
   -1.2990    0.7500    0.0000 C   0  0  0  0  0  0  0  0  0  0  0  0
   -2.5981    0.0000    0.0000 S   0  0  0  0  0  0  0  0  0  0  0  0
   -3.3481    1.2990    0.0000 O   0  0  0  0  0  0  0  0  0  0  0  0
   -1.8481   -1.2990    0.0000 O   0  0  0  0  0  0  0  0  0  0  0  0
   -3.8971   -0.7500    0.0000 C   0  0  0  0  0  0  0  0  0  0  0  0
   -3.8971   -2.2500    0.0000 C   0  0  0  0  0  0  0  0  0  0  0  0
   -5.1962   -3.0000    0.0000 C   0  0  0  0  0  0  0  0  0  0  0  0
   -4.4462   -4.2990    0.0000 F   0  0  0  0  0  0  0  0  0  0  0  0
   -5.9462   -1.7010    0.0000 F   0  0  0  0  0  0  0  0  0  0  0  0
   -6.4952   -3.7500    0.0000 C   0  0  0  0  0  0  0  0  0  0  0  0
   -7.2452   -2.4510    0.0000 F   0  0  0  0  0  0  0  0  0  0  0  0
   -5.7452   -5.0490    0.0000 F   0  0  0  0  0  0  0  0  0  0  0  0
   -7.7942   -4.5000    0.0000 C   0  0  0  0  0  0  0  0  0  0  0  0
   -7.0442   -5.7990    0.0000 F   0  0  0  0  0  0  0  0  0  0  0  0
   -8.5442   -3.2010    0.0000 F   0  0  0  0  0  0  0  0  0  0  0  0
   -9.0933   -5.2500    0.0000 C   0  0  0  0  0  0  0  0  0  0  0  0
   -9.8433   -3.9510    0.0000 F   0  0  0  0  0  0  0  0  0  0  0  0
   -8.3433   -6.5490    0.0000 F   0  0  0  0  0  0  0  0  0  0  0  0
  -10.3923   -6.0000    0.0000 C   0  0  0  0  0  0  0  0  0  0  0  0
   -9.6423   -7.2990    0.0000 F   0  0  0  0  0  0  0  0  0  0  0  0
  -11.1423   -4.7010    0.0000 F   0  0  0  0  0  0  0  0  0  0  0  0
  -11.6913   -6.7500    0.0000 C   0  0  0  0  0  0  0  0  0  0  0  0
  -12.4413   -5.4510    0.0000 F   0  0  0  0  0  0  0  0  0  0  0  0
  -10.9413   -8.0490    0.0000 F   0  0  0  0  0  0  0  0  0  0  0  0
  -12.9904   -7.5000    0.0000 C   0  0  0  0  0  0  0  0  0  0  0  0
  -12.2404   -8.7990    0.0000 F   0  0  0  0  0  0  0  0  0  0  0  0
  -13.7404   -6.2010    0.0000 F   0  0  0  0  0  0  0  0  0  0  0  0
  -14.2894   -8.2500    0.0000 C   0  0  0  0  0  0  0  0  0  0  0  0
  -15.0394   -6.9510    0.0000 F   0  0  0  0  0  0  0  0  0  0  0  0
  -13.5394   -9.5490    0.0000 F   0  0  0  0  0  0  0  0  0  0  0  0
  -15.5885   -9.0000    0.0000 C   0  0  0  0  0  0  0  0  0  0  0  0
  -14.8385  -10.2990    0.0000 F   0  0  0  0  0  0  0  0  0  0  0  0
  -16.3385   -7.7010    0.0000 F   0  0  0  0  0  0  0  0  0  0  0  0
  -16.8875   -9.7500    0.0000 C   0  0  0  0  0  0  0  0  0  0  0  0
  -18.1865  -10.5000    0.0000 F   0  0  0  0  0  0  0  0  0  0  0  0
  -17.6375   -8.4510    0.0000 F   0  0  0  0  0  0  0  0  0  0  0  0
  -16.1375  -11.0490    0.0000 F   0  0  0  0  0  0  0  0  0  0  0  0
  1  2  2  0
  2  3  1  0
  2  4  1  0
  4  5  1  0
  5  6  1  0
  6  7  2  0
  6  8  2  0
  6  9  1  0
  9 10  1  0
 10 11  1  0
 11 12  1  0
 11 13  1  0
 11 14  1  0
 14 15  1  0
 14 16  1  0
 14 17  1  0
 17 18  1  0
 17 19  1  0
 17 20  1  0
 20 21  1  0
 20 22  1  0
 20 23  1  0
 23 24  1  0
 23 25  1  0
 23 26  1  0
 26 27  1  0
 26 28  1  0
 26 29  1  0
 29 30  1  0
 29 31  1  0
 29 32  1  0
 32 33  1  0
 32 34  1  0
 32 35  1  0
 35 36  1  0
 35 37  1  0
 35 38  1  0
 38 39  1  0
 38 40  1  0
 38 41  1  0
M  END
$$$$

     RDKit          2D

 49 48  0  0  0  0  0  0  0  0999 V2000
    0.0000    0.0000    0.0000 C   0  0  0  0  0  0  0  0  0  0  0  0
    1.2990    0.7500    0.0000 C   0  0  0  0  0  0  0  0  0  0  0  0
    2.5981    1.5000    0.0000 C   0  0  0  0  0  0  0  0  0  0  0  0
    2.0490   -0.5490    0.0000 C   0  0  0  0  0  0  0  0  0  0  0  0
    3.5490   -0.5490    0.0000 S   0  0  0  0  0  0  0  0  0  0  0  0
    3.5490   -2.0490    0.0000 O   0  0  0  0  0  0  0  0  0  0  0  0
    3.5490    0.9510    0.0000 O   0  0  0  0  0  0  0  0  0  0  0  0
    5.0490   -0.5490    0.0000 O   0  0  0  0  0  0  0  0  0  0  0  0
    0.5490    2.0490    0.0000 N   0  0  0  0  0  0  0  0  0  0  0  0
    1.2990    3.3481    0.0000 C   0  0  0  0  0  0  0  0  0  0  0  0
    2.7990    3.3481    0.0000 O   0  0  0  0  0  0  0  0  0  0  0  0
    0.5490    4.6471    0.0000 C   0  0  0  0  0  0  0  0  0  0  0  0
    1.2990    5.9462    0.0000 C   0  0  0  0  0  0  0  0  0  0  0  0
    0.5490    7.2452    0.0000 S   0  0  0  0  0  0  0  0  0  0  0  0
    1.8481    7.9952    0.0000 O   0  0  0  0  0  0  0  0  0  0  0  0
   -0.7500    6.4952    0.0000 O   0  0  0  0  0  0  0  0  0  0  0  0
   -0.2010    8.5442    0.0000 C   0  0  0  0  0  0  0  0  0  0  0  0
   -1.7010    8.5442    0.0000 C   0  0  0  0  0  0  0  0  0  0  0  0
   -2.4510    9.8433    0.0000 C   0  0  0  0  0  0  0  0  0  0  0  0
   -3.7500    9.0933    0.0000 F   0  0  0  0  0  0  0  0  0  0  0  0
   -1.1519   10.5933    0.0000 F   0  0  0  0  0  0  0  0  0  0  0  0
   -3.2010   11.1423    0.0000 C   0  0  0  0  0  0  0  0  0  0  0  0
   -1.9019   11.8923    0.0000 F   0  0  0  0  0  0  0  0  0  0  0  0
   -4.5000   10.3923    0.0000 F   0  0  0  0  0  0  0  0  0  0  0  0
   -3.9510   12.4413    0.0000 C   0  0  0  0  0  0  0  0  0  0  0  0
   -5.2500   11.6913    0.0000 F   0  0  0  0  0  0  0  0  0  0  0  0
   -2.6519   13.1913    0.0000 F   0  0  0  0  0  0  0  0  0  0  0  0
   -4.7010   13.7404    0.0000 C   0  0  0  0  0  0  0  0  0  0  0  0
   -3.4019   14.4904    0.0000 F   0  0  0  0  0  0  0  0  0  0  0  0
   -6.0000   12.9904    0.0000 F   0  0  0  0  0  0  0  0  0  0  0  0
   -5.4510   15.0394    0.0000 C   0  0  0  0  0  0  0  0  0  0  0  0
   -6.7500   14.2894    0.0000 F   0  0  0  0  0  0  0  0  0  0  0  0
   -4.1519   15.7894    0.0000 F   0  0  0  0  0  0  0  0  0  0  0  0
   -6.2010   16.3385    0.0000 C   0  0  0  0  0  0  0  0  0  0  0  0
   -4.9019   17.0885    0.0000 F   0  0  0  0  0  0  0  0  0  0  0  0
   -7.5000   15.5885    0.0000 F   0  0  0  0  0  0  0  0  0  0  0  0
   -6.9510   17.6375    0.0000 C   0  0  0  0  0  0  0  0  0  0  0  0
   -8.2500   16.8875    0.0000 F   0  0  0  0  0  0  0  0  0  0  0  0
   -5.6519   18.3875    0.0000 F   0  0  0  0  0  0  0  0  0  0  0  0
   -7.7010   18.9365    0.0000 C   0  0  0  0  0  0  0  0  0  0  0  0
   -6.4019   19.6865    0.0000 F   0  0  0  0  0  0  0  0  0  0  0  0
   -9.0000   18.1865    0.0000 F   0  0  0  0  0  0  0  0  0  0  0  0
   -8.4510   20.2356    0.0000 C   0  0  0  0  0  0  0  0  0  0  0  0
   -9.7500   19.4856    0.0000 F   0  0  0  0  0  0  0  0  0  0  0  0
   -7.1519   20.9856    0.0000 F   0  0  0  0  0  0  0  0  0  0  0  0
   -9.2010   21.5346    0.0000 C   0  0  0  0  0  0  0  0  0  0  0  0
   -9.9510   22.8336    0.0000 F   0  0  0  0  0  0  0  0  0  0  0  0
   -7.9019   22.2846    0.0000 F   0  0  0  0  0  0  0  0  0  0  0  0
  -10.5000   20.7846    0.0000 F   0  0  0  0  0  0  0  0  0  0  0  0
  1  2  1  0
  2  3  1  0
  2  4  1  0
  4  5  1  0
  5  6  2  0
  5  7  2  0
  5  8  1  0
  2  9  1  0
  9 10  1  0
 10 11  2  0
 10 12  1  0
 12 13  1  0
 13 14  1  0
 14 15  2  0
 14 16  2  0
 14 17  1  0
 17 18  1  0
 18 19  1  0
 19 20  1  0
 19 21  1  0
 19 22  1  0
 22 23  1  0
 22 24  1  0
 22 25  1  0
 25 26  1  0
 25 27  1  0
 25 28  1  0
 28 29  1  0
 28 30  1  0
 28 31  1  0
 31 32  1  0
 31 33  1  0
 31 34  1  0
 34 35  1  0
 34 36  1  0
 34 37  1  0
 37 38  1  0
 37 39  1  0
 37 40  1  0
 40 41  1  0
 40 42  1  0
 40 43  1  0
 43 44  1  0
 43 45  1  0
 43 46  1  0
 46 47  1  0
 46 48  1  0
 46 49  1  0
M  END
$$$$

     RDKit          2D

 56 55  0  0  0  0  0  0  0  0999 V2000
   -1.2990    0.7500    0.0000 O   0  0  0  0  0  0  0  0  0  0  0  0
    0.0000    0.0000    0.0000 C   0  0  0  0  0  0  0  0  0  0  0  0
    1.2990    0.7500    0.0000 C   0  0  0  0  0  0  0  0  0  0  0  0
    2.5981   -0.0000    0.0000 C   0  0  0  0  0  0  0  0  0  0  0  0
    3.8971    0.7500    0.0000 C   0  0  0  0  0  0  0  0  0  0  0  0
    5.1962   -0.0000    0.0000 C   0  0  0  0  0  0  0  0  0  0  0  0
    6.4952    0.7500    0.0000 C   0  0  0  0  0  0  0  0  0  0  0  0
    7.7942   -0.0000    0.0000 N   0  0  0  0  0  0  0  0  0  0  0  0
    9.0933    0.7500    0.0000 C   0  0  0  0  0  0  0  0  0  0  0  0
   10.3923   -0.0000    0.0000 O   0  0  0  0  0  0  0  0  0  0  0  0
    9.0933    2.2500    0.0000 S   0  0  0  0  0  0  0  0  0  0  0  0
   10.3923    3.0000    0.0000 C   0  0  0  0  0  0  0  0  0  0  0  0
   10.3923    4.5000    0.0000 C   0  0  0  0  0  0  0  0  0  0  0  0
   11.6913    5.2500    0.0000 C   0  0  0  0  0  0  0  0  0  0  0  0
   10.9413    6.5490    0.0000 F   0  0  0  0  0  0  0  0  0  0  0  0
   12.4413    3.9510    0.0000 F   0  0  0  0  0  0  0  0  0  0  0  0
   12.9904    6.0000    0.0000 C   0  0  0  0  0  0  0  0  0  0  0  0
   13.7404    4.7010    0.0000 F   0  0  0  0  0  0  0  0  0  0  0  0
   12.2404    7.2990    0.0000 F   0  0  0  0  0  0  0  0  0  0  0  0
   14.2894    6.7500    0.0000 C   0  0  0  0  0  0  0  0  0  0  0  0
   13.5394    8.0490    0.0000 F   0  0  0  0  0  0  0  0  0  0  0  0
   15.0394    5.4510    0.0000 F   0  0  0  0  0  0  0  0  0  0  0  0
   15.5885    7.5000    0.0000 C   0  0  0  0  0  0  0  0  0  0  0  0
   16.3385    6.2010    0.0000 F   0  0  0  0  0  0  0  0  0  0  0  0
   14.8385    8.7990    0.0000 F   0  0  0  0  0  0  0  0  0  0  0  0
   16.8875    8.2500    0.0000 C   0  0  0  0  0  0  0  0  0  0  0  0
   16.1375    9.5490    0.0000 F   0  0  0  0  0  0  0  0  0  0  0  0
   17.6375    6.9510    0.0000 F   0  0  0  0  0  0  0  0  0  0  0  0
   18.1865    9.0000    0.0000 C   0  0  0  0  0  0  0  0  0  0  0  0
   18.9365    7.7010    0.0000 F   0  0  0  0  0  0  0  0  0  0  0  0
   17.4365   10.2990    0.0000 F   0  0  0  0  0  0  0  0  0  0  0  0
   19.4856    9.7500    0.0000 C   0  0  0  0  0  0  0  0  0  0  0  0
   18.7356   11.0490    0.0000 F   0  0  0  0  0  0  0  0  0  0  0  0
   20.2356    8.4510    0.0000 F   0  0  0  0  0  0  0  0  0  0  0  0
   20.7846   10.5000    0.0000 C   0  0  0  0  0  0  0  0  0  0  0  0
   21.5346    9.2010    0.0000 F   0  0  0  0  0  0  0  0  0  0  0  0
   20.0346   11.7990    0.0000 F   0  0  0  0  0  0  0  0  0  0  0  0
   22.0836   11.2500    0.0000 C   0  0  0  0  0  0  0  0  0  0  0  0
   21.3336   12.5490    0.0000 F   0  0  0  0  0  0  0  0  0  0  0  0
   22.8336    9.9510    0.0000 F   0  0  0  0  0  0  0  0  0  0  0  0
   23.3827   12.0000    0.0000 C   0  0  0  0  0  0  0  0  0  0  0  0
   24.1327   10.7010    0.0000 F   0  0  0  0  0  0  0  0  0  0  0  0
   22.6327   13.2990    0.0000 F   0  0  0  0  0  0  0  0  0  0  0  0
   24.6817   12.7500    0.0000 C   0  0  0  0  0  0  0  0  0  0  0  0
   23.9317   14.0490    0.0000 F   0  0  0  0  0  0  0  0  0  0  0  0
   25.4317   11.4510    0.0000 F   0  0  0  0  0  0  0  0  0  0  0  0
   25.9808   13.5000    0.0000 C   0  0  0  0  0  0  0  0  0  0  0  0
   26.7308   12.2010    0.0000 F   0  0  0  0  0  0  0  0  0  0  0  0
   25.2308   14.7990    0.0000 F   0  0  0  0  0  0  0  0  0  0  0  0
   27.2798   14.2500    0.0000 C   0  0  0  0  0  0  0  0  0  0  0  0
   26.5298   15.5490    0.0000 F   0  0  0  0  0  0  0  0  0  0  0  0
   28.0298   12.9510    0.0000 F   0  0  0  0  0  0  0  0  0  0  0  0
   28.5788   15.0000    0.0000 C   0  0  0  0  0  0  0  0  0  0  0  0
   29.8779   15.7500    0.0000 F   0  0  0  0  0  0  0  0  0  0  0  0
   29.3288   13.7010    0.0000 F   0  0  0  0  0  0  0  0  0  0  0  0
   27.8288   16.2990    0.0000 F   0  0  0  0  0  0  0  0  0  0  0  0
  1  2  2  0
  2  3  1  0
  3  4  1  0
  4  5  1  0
  5  6  1  0
  6  7  1  0
  7  8  1  0
  8  9  1  0
  9 10  2  0
  9 11  1  0
 11 12  1  0
 12 13  1  0
 13 14  1  0
 14 15  1  0
 14 16  1  0
 14 17  1  0
 17 18  1  0
 17 19  1  0
 17 20  1  0
 20 21  1  0
 20 22  1  0
 20 23  1  0
 23 24  1  0
 23 25  1  0
 23 26  1  0
 26 27  1  0
 26 28  1  0
 26 29  1  0
 29 30  1  0
 29 31  1  0
 29 32  1  0
 32 33  1  0
 32 34  1  0
 32 35  1  0
 35 36  1  0
 35 37  1  0
 35 38  1  0
 38 39  1  0
 38 40  1  0
 38 41  1  0
 41 42  1  0
 41 43  1  0
 41 44  1  0
 44 45  1  0
 44 46  1  0
 44 47  1  0
 47 48  1  0
 47 49  1  0
 47 50  1  0
 50 51  1  0
 50 52  1  0
 50 53  1  0
 53 54  1  0
 53 55  1  0
 53 56  1  0
M  END
$$$$

     RDKit          2D

 50 49  0  0  0  0  0  0  0  0999 V2000
   -1.2990    2.2500    0.0000 O   0  0  0  0  0  0  0  0  0  0  0  0
   -1.2990    0.7500    0.0000 C   0  0  0  0  0  0  0  0  0  0  0  0
   -2.5981    0.0000    0.0000 O   0  0  0  0  0  0  0  0  0  0  0  0
    0.0000    0.0000    0.0000 C   0  0  0  0  0  0  0  0  0  0  0  0
    1.2990    0.7500    0.0000 C   0  0  0  0  0  0  0  0  0  0  0  0
    2.5981   -0.0000    0.0000 C   0  0  0  0  0  0  0  0  0  0  0  0
    3.8971    0.7500    0.0000 C   0  0  0  0  0  0  0  0  0  0  0  0
    5.1962   -0.0000    0.0000 N   0  0  0  0  0  0  0  0  0  0  0  0
    6.4952    0.7500    0.0000 C   0  0  0  0  0  0  0  0  0  0  0  0
    7.7942   -0.0000    0.0000 O   0  0  0  0  0  0  0  0  0  0  0  0
    6.4952    2.2500    0.0000 S   0  0  0  0  0  0  0  0  0  0  0  0
    7.7942    3.0000    0.0000 C   0  0  0  0  0  0  0  0  0  0  0  0
    7.7942    4.5000    0.0000 C   0  0  0  0  0  0  0  0  0  0  0  0
    9.0933    5.2500    0.0000 C   0  0  0  0  0  0  0  0  0  0  0  0
    8.3433    6.5490    0.0000 F   0  0  0  0  0  0  0  0  0  0  0  0
    9.8433    3.9510    0.0000 F   0  0  0  0  0  0  0  0  0  0  0  0
   10.3923    6.0000    0.0000 C   0  0  0  0  0  0  0  0  0  0  0  0
   11.1423    4.7010    0.0000 F   0  0  0  0  0  0  0  0  0  0  0  0
    9.6423    7.2990    0.0000 F   0  0  0  0  0  0  0  0  0  0  0  0
   11.6913    6.7500    0.0000 C   0  0  0  0  0  0  0  0  0  0  0  0
   10.9413    8.0490    0.0000 F   0  0  0  0  0  0  0  0  0  0  0  0
   12.4413    5.4510    0.0000 F   0  0  0  0  0  0  0  0  0  0  0  0
   12.9904    7.5000    0.0000 C   0  0  0  0  0  0  0  0  0  0  0  0
   13.7404    6.2010    0.0000 F   0  0  0  0  0  0  0  0  0  0  0  0
   12.2404    8.7990    0.0000 F   0  0  0  0  0  0  0  0  0  0  0  0
   14.2894    8.2500    0.0000 C   0  0  0  0  0  0  0  0  0  0  0  0
   13.5394    9.5490    0.0000 F   0  0  0  0  0  0  0  0  0  0  0  0
   15.0394    6.9510    0.0000 F   0  0  0  0  0  0  0  0  0  0  0  0
   15.5885    9.0000    0.0000 C   0  0  0  0  0  0  0  0  0  0  0  0
   16.3385    7.7010    0.0000 F   0  0  0  0  0  0  0  0  0  0  0  0
   14.8385   10.2990    0.0000 F   0  0  0  0  0  0  0  0  0  0  0  0
   16.8875    9.7500    0.0000 C   0  0  0  0  0  0  0  0  0  0  0  0
   16.1375   11.0490    0.0000 F   0  0  0  0  0  0  0  0  0  0  0  0
   17.6375    8.4510    0.0000 F   0  0  0  0  0  0  0  0  0  0  0  0
   18.1865   10.5000    0.0000 C   0  0  0  0  0  0  0  0  0  0  0  0
   18.9365    9.2010    0.0000 F   0  0  0  0  0  0  0  0  0  0  0  0
   17.4365   11.7990    0.0000 F   0  0  0  0  0  0  0  0  0  0  0  0
   19.4856   11.2500    0.0000 C   0  0  0  0  0  0  0  0  0  0  0  0
   18.7356   12.5490    0.0000 F   0  0  0  0  0  0  0  0  0  0  0  0
   20.2356    9.9510    0.0000 F   0  0  0  0  0  0  0  0  0  0  0  0
   20.7846   12.0000    0.0000 C   0  0  0  0  0  0  0  0  0  0  0  0
   21.5346   10.7010    0.0000 F   0  0  0  0  0  0  0  0  0  0  0  0
   20.0346   13.2990    0.0000 F   0  0  0  0  0  0  0  0  0  0  0  0
   22.0836   12.7500    0.0000 C   0  0  0  0  0  0  0  0  0  0  0  0
   21.3336   14.0490    0.0000 F   0  0  0  0  0  0  0  0  0  0  0  0
   22.8336   11.4510    0.0000 F   0  0  0  0  0  0  0  0  0  0  0  0
   23.3827   13.5000    0.0000 C   0  0  0  0  0  0  0  0  0  0  0  0
   24.6817   14.2500    0.0000 F   0  0  0  0  0  0  0  0  0  0  0  0
   24.1327   12.2010    0.0000 F   0  0  0  0  0  0  0  0  0  0  0  0
   22.6327   14.7990    0.0000 F   0  0  0  0  0  0  0  0  0  0  0  0
  1  2  2  0
  2  3  1  0
  2  4  1  0
  4  5  1  0
  5  6  1  0
  6  7  1  0
  7  8  1  0
  8  9  1  0
  9 10  2  0
  9 11  1  0
 11 12  1  0
 12 13  1  0
 13 14  1  0
 14 15  1  0
 14 16  1  0
 14 17  1  0
 17 18  1  0
 17 19  1  0
 17 20  1  0
 20 21  1  0
 20 22  1  0
 20 23  1  0
 23 24  1  0
 23 25  1  0
 23 26  1  0
 26 27  1  0
 26 28  1  0
 26 29  1  0
 29 30  1  0
 29 31  1  0
 29 32  1  0
 32 33  1  0
 32 34  1  0
 32 35  1  0
 35 36  1  0
 35 37  1  0
 35 38  1  0
 38 39  1  0
 38 40  1  0
 38 41  1  0
 41 42  1  0
 41 43  1  0
 41 44  1  0
 44 45  1  0
 44 46  1  0
 44 47  1  0
 47 48  1  0
 47 49  1  0
 47 50  1  0
M  END
$$$$

     RDKit          2D

 18 17  0  0  0  0  0  0  0  0999 V2000
    0.0000    0.0000    0.0000 C   0  0  0  0  0  0  0  0  0  0  0  0
    1.2990    0.7500    0.0000 N   0  0  0  0  0  0  0  0  0  0  0  0
    2.5981    1.5000    0.0000 C   0  0  0  0  0  0  0  0  0  0  0  0
    2.0490   -0.5490    0.0000 C   0  0  0  0  0  0  0  0  0  0  0  0
    0.5490    2.0490    0.0000 C   0  0  0  0  0  0  0  0  0  0  0  0
    1.2990    3.3481    0.0000 C   0  0  0  0  0  0  0  0  0  0  0  0
    2.7990    3.3481    0.0000 O   0  0  0  0  0  0  0  0  0  0  0  0
    0.5490    4.6471    0.0000 C   0  0  0  0  0  0  0  0  0  0  0  0
    1.2990    5.9462    0.0000 S   0  0  0  0  0  0  0  0  0  0  0  0
    0.5490    7.2452    0.0000 C   0  0  0  0  0  0  0  0  0  0  0  0
    1.2990    8.5442    0.0000 C   0  0  0  0  0  0  0  0  0  0  0  0
    0.5490    9.8433    0.0000 C   0  0  0  0  0  0  0  0  0  0  0  0
    1.8481   10.5933    0.0000 F   0  0  0  0  0  0  0  0  0  0  0  0
   -0.7500    9.0933    0.0000 F   0  0  0  0  0  0  0  0  0  0  0  0
   -0.2010   11.1423    0.0000 C   0  0  0  0  0  0  0  0  0  0  0  0
   -0.9510   12.4413    0.0000 F   0  0  0  0  0  0  0  0  0  0  0  0
   -1.5000   10.3923    0.0000 F   0  0  0  0  0  0  0  0  0  0  0  0
    1.0981   11.8923    0.0000 F   0  0  0  0  0  0  0  0  0  0  0  0
  1  2  1  0
  2  3  1  0
  2  4  1  0
  2  5  1  0
  5  6  1  0
  6  7  1  0
  6  8  1  0
  8  9  1  0
  9 10  1  0
 10 11  1  0
 11 12  1  0
 12 13  1  0
 12 14  1  0
 12 15  1  0
 15 16  1  0
 15 17  1  0
 15 18  1  0
M  CHG  1   2   1
M  END
$$$$

     RDKit          2D

 21 20  0  0  0  0  0  0  0  0999 V2000
    0.0000    0.0000    0.0000 C   0  0  0  0  0  0  0  0  0  0  0  0
    1.2990    0.7500    0.0000 N   0  0  0  0  0  0  0  0  0  0  0  0
    2.5981    1.5000    0.0000 C   0  0  0  0  0  0  0  0  0  0  0  0
    2.0490   -0.5490    0.0000 C   0  0  0  0  0  0  0  0  0  0  0  0
    3.5490   -0.5490    0.0000 C   0  0  0  0  0  0  0  0  0  0  0  0
    4.2990   -1.8481    0.0000 C   0  0  0  0  0  0  0  0  0  0  0  0
    3.5490   -3.1471    0.0000 F   0  0  0  0  0  0  0  0  0  0  0  0
    5.7990   -1.8481    0.0000 C   0  0  0  0  0  0  0  0  0  0  0  0
    5.7990   -3.3481    0.0000 F   0  0  0  0  0  0  0  0  0  0  0  0
    5.7990   -0.3481    0.0000 F   0  0  0  0  0  0  0  0  0  0  0  0
    7.2990   -1.8481    0.0000 C   0  0  0  0  0  0  0  0  0  0  0  0
    7.2990   -0.3481    0.0000 F   0  0  0  0  0  0  0  0  0  0  0  0
    7.2990   -3.3481    0.0000 F   0  0  0  0  0  0  0  0  0  0  0  0
    8.7990   -1.8481    0.0000 C   0  0  0  0  0  0  0  0  0  0  0  0
   10.2990   -1.8481    0.0000 F   0  0  0  0  0  0  0  0  0  0  0  0
    8.7990   -3.3481    0.0000 F   0  0  0  0  0  0  0  0  0  0  0  0
    8.7990   -0.3481    0.0000 F   0  0  0  0  0  0  0  0  0  0  0  0
    0.5490    2.0490    0.0000 C   0  0  0  0  0  0  0  0  0  0  0  0
    1.2990    3.3481    0.0000 C   0  0  0  0  0  0  0  0  0  0  0  0
    2.7990    3.3481    0.0000 O   0  0  0  0  0  0  0  0  0  0  0  0
    0.5490    4.6471    0.0000 O   0  0  0  0  0  0  0  0  0  0  0  0
  1  2  1  0
  2  3  1  0
  2  4  1  0
  4  5  1  0
  5  6  1  0
  6  7  1  0
  6  8  1  0
  8  9  1  0
  8 10  1  0
  8 11  1  0
 11 12  1  0
 11 13  1  0
 11 14  1  0
 14 15  1  0
 14 16  1  0
 14 17  1  0
  2 18  1  0
 18 19  1  0
 19 20  2  0
 19 21  1  0
M  CHG  2   2   1  21  -1
M  END
$$$$

     RDKit          2D

 51 50  0  0  0  0  0  0  0  0999 V2000
    0.0000    0.0000    0.0000 C   0  0  0  0  0  0  0  0  0  0  0  0
    1.2990    0.7500    0.0000 N   0  0  0  0  0  0  0  0  0  0  0  0
    2.5981    1.5000    0.0000 C   0  0  0  0  0  0  0  0  0  0  0  0
    2.0490   -0.5490    0.0000 C   0  0  0  0  0  0  0  0  0  0  0  0
    3.5490   -0.5490    0.0000 C   0  0  0  0  0  0  0  0  0  0  0  0
    4.2990   -1.8481    0.0000 C   0  0  0  0  0  0  0  0  0  0  0  0
    3.5490   -3.1471    0.0000 F   0  0  0  0  0  0  0  0  0  0  0  0
    5.7990   -1.8481    0.0000 C   0  0  0  0  0  0  0  0  0  0  0  0
    5.7990   -3.3481    0.0000 F   0  0  0  0  0  0  0  0  0  0  0  0
    5.7990   -0.3481    0.0000 F   0  0  0  0  0  0  0  0  0  0  0  0
    7.2990   -1.8481    0.0000 C   0  0  0  0  0  0  0  0  0  0  0  0
    7.2990   -0.3481    0.0000 F   0  0  0  0  0  0  0  0  0  0  0  0
    7.2990   -3.3481    0.0000 F   0  0  0  0  0  0  0  0  0  0  0  0
    8.7990   -1.8481    0.0000 C   0  0  0  0  0  0  0  0  0  0  0  0
    8.7990   -3.3481    0.0000 F   0  0  0  0  0  0  0  0  0  0  0  0
    8.7990   -0.3481    0.0000 F   0  0  0  0  0  0  0  0  0  0  0  0
   10.2990   -1.8481    0.0000 C   0  0  0  0  0  0  0  0  0  0  0  0
   10.2990   -0.3481    0.0000 F   0  0  0  0  0  0  0  0  0  0  0  0
   10.2990   -3.3481    0.0000 F   0  0  0  0  0  0  0  0  0  0  0  0
   11.7990   -1.8481    0.0000 C   0  0  0  0  0  0  0  0  0  0  0  0
   11.7990   -3.3481    0.0000 F   0  0  0  0  0  0  0  0  0  0  0  0
   11.7990   -0.3481    0.0000 F   0  0  0  0  0  0  0  0  0  0  0  0
   13.2990   -1.8481    0.0000 C   0  0  0  0  0  0  0  0  0  0  0  0
   13.2990   -0.3481    0.0000 F   0  0  0  0  0  0  0  0  0  0  0  0
   13.2990   -3.3481    0.0000 F   0  0  0  0  0  0  0  0  0  0  0  0
   14.7990   -1.8481    0.0000 C   0  0  0  0  0  0  0  0  0  0  0  0
   14.7990   -3.3481    0.0000 F   0  0  0  0  0  0  0  0  0  0  0  0
   14.7990   -0.3481    0.0000 F   0  0  0  0  0  0  0  0  0  0  0  0
   16.2990   -1.8481    0.0000 C   0  0  0  0  0  0  0  0  0  0  0  0
   16.2990   -0.3481    0.0000 F   0  0  0  0  0  0  0  0  0  0  0  0
   16.2990   -3.3481    0.0000 F   0  0  0  0  0  0  0  0  0  0  0  0
   17.7990   -1.8481    0.0000 C   0  0  0  0  0  0  0  0  0  0  0  0
   17.7990   -3.3481    0.0000 F   0  0  0  0  0  0  0  0  0  0  0  0
   17.7990   -0.3481    0.0000 F   0  0  0  0  0  0  0  0  0  0  0  0
   19.2990   -1.8481    0.0000 C   0  0  0  0  0  0  0  0  0  0  0  0
   19.2990   -0.3481    0.0000 F   0  0  0  0  0  0  0  0  0  0  0  0
   19.2990   -3.3481    0.0000 F   0  0  0  0  0  0  0  0  0  0  0  0
   20.7990   -1.8481    0.0000 C   0  0  0  0  0  0  0  0  0  0  0  0
   20.7990   -3.3481    0.0000 F   0  0  0  0  0  0  0  0  0  0  0  0
   20.7990   -0.3481    0.0000 F   0  0  0  0  0  0  0  0  0  0  0  0
   22.2990   -1.8481    0.0000 C   0  0  0  0  0  0  0  0  0  0  0  0
   22.2990   -0.3481    0.0000 F   0  0  0  0  0  0  0  0  0  0  0  0
   22.2990   -3.3481    0.0000 F   0  0  0  0  0  0  0  0  0  0  0  0
   23.7990   -1.8481    0.0000 C   0  0  0  0  0  0  0  0  0  0  0  0
   25.2990   -1.8481    0.0000 F   0  0  0  0  0  0  0  0  0  0  0  0
   23.7990   -3.3481    0.0000 F   0  0  0  0  0  0  0  0  0  0  0  0
   23.7990   -0.3481    0.0000 F   0  0  0  0  0  0  0  0  0  0  0  0
    0.5490    2.0490    0.0000 C   0  0  0  0  0  0  0  0  0  0  0  0
    1.2990    3.3481    0.0000 C   0  0  0  0  0  0  0  0  0  0  0  0
    2.7990    3.3481    0.0000 O   0  0  0  0  0  0  0  0  0  0  0  0
    0.5490    4.6471    0.0000 O   0  0  0  0  0  0  0  0  0  0  0  0
  1  2  1  0
  2  3  1  0
  2  4  1  0
  4  5  1  0
  5  6  1  0
  6  7  1  0
  6  8  1  0
  8  9  1  0
  8 10  1  0
  8 11  1  0
 11 12  1  0
 11 13  1  0
 11 14  1  0
 14 15  1  0
 14 16  1  0
 14 17  1  0
 17 18  1  0
 17 19  1  0
 17 20  1  0
 20 21  1  0
 20 22  1  0
 20 23  1  0
 23 24  1  0
 23 25  1  0
 23 26  1  0
 26 27  1  0
 26 28  1  0
 26 29  1  0
 29 30  1  0
 29 31  1  0
 29 32  1  0
 32 33  1  0
 32 34  1  0
 32 35  1  0
 35 36  1  0
 35 37  1  0
 35 38  1  0
 38 39  1  0
 38 40  1  0
 38 41  1  0
 41 42  1  0
 41 43  1  0
 41 44  1  0
 44 45  1  0
 44 46  1  0
 44 47  1  0
  2 48  1  0
 48 49  1  0
 49 50  2  0
 49 51  1  0
M  CHG  1   2   1
M  END
$$$$

     RDKit          2D

 48 47  0  0  0  0  0  0  0  0999 V2000
    1.2990    2.2500    0.0000 O   0  0  0  0  0  0  0  0  0  0  0  0
    1.2990    0.7500    0.0000 C   0  0  0  0  0  0  0  0  0  0  0  0
    2.5981   -0.0000    0.0000 O   0  0  0  0  0  0  0  0  0  0  0  0
    0.0000    0.0000    0.0000 C   0  0  0  0  0  0  0  0  0  0  0  0
   -1.2990    0.7500    0.0000 C   0  0  0  0  0  0  0  0  0  0  0  0
   -2.5981    0.0000    0.0000 S   0  0  0  0  0  0  0  0  0  0  0  0
   -3.8971    0.7500    0.0000 C   0  0  0  0  0  0  0  0  0  0  0  0
   -5.1962    0.0000    0.0000 C   0  0  0  0  0  0  0  0  0  0  0  0
   -6.4952    0.7500    0.0000 O   0  0  0  0  0  0  0  0  0  0  0  0
   -3.8971    2.2500    0.0000 C   0  0  0  0  0  0  0  0  0  0  0  0
   -2.5981    3.0000    0.0000 O   0  0  0  0  0  0  0  0  0  0  0  0
   -5.1962    3.0000    0.0000 C   0  0  0  0  0  0  0  0  0  0  0  0
   -4.4462    4.2990    0.0000 F   0  0  0  0  0  0  0  0  0  0  0  0
   -5.9462    1.7010    0.0000 F   0  0  0  0  0  0  0  0  0  0  0  0
   -6.4952    3.7500    0.0000 C   0  0  0  0  0  0  0  0  0  0  0  0
   -5.7452    5.0490    0.0000 F   0  0  0  0  0  0  0  0  0  0  0  0
   -7.2452    2.4510    0.0000 F   0  0  0  0  0  0  0  0  0  0  0  0
   -7.7942    4.5000    0.0000 C   0  0  0  0  0  0  0  0  0  0  0  0
   -8.5442    3.2010    0.0000 F   0  0  0  0  0  0  0  0  0  0  0  0
   -7.0442    5.7990    0.0000 F   0  0  0  0  0  0  0  0  0  0  0  0
   -9.0933    5.2500    0.0000 C   0  0  0  0  0  0  0  0  0  0  0  0
   -8.3433    6.5490    0.0000 F   0  0  0  0  0  0  0  0  0  0  0  0
   -9.8433    3.9510    0.0000 F   0  0  0  0  0  0  0  0  0  0  0  0
  -10.3923    6.0000    0.0000 C   0  0  0  0  0  0  0  0  0  0  0  0
  -11.1423    4.7010    0.0000 F   0  0  0  0  0  0  0  0  0  0  0  0
   -9.6423    7.2990    0.0000 F   0  0  0  0  0  0  0  0  0  0  0  0
  -11.6913    6.7500    0.0000 C   0  0  0  0  0  0  0  0  0  0  0  0
  -10.9413    8.0490    0.0000 F   0  0  0  0  0  0  0  0  0  0  0  0
  -12.4413    5.4510    0.0000 F   0  0  0  0  0  0  0  0  0  0  0  0
  -12.9904    7.5000    0.0000 C   0  0  0  0  0  0  0  0  0  0  0  0
  -13.7404    6.2010    0.0000 F   0  0  0  0  0  0  0  0  0  0  0  0
  -12.2404    8.7990    0.0000 F   0  0  0  0  0  0  0  0  0  0  0  0
  -14.2894    8.2500    0.0000 C   0  0  0  0  0  0  0  0  0  0  0  0
  -13.5394    9.5490    0.0000 F   0  0  0  0  0  0  0  0  0  0  0  0
  -15.0394    6.9510    0.0000 F   0  0  0  0  0  0  0  0  0  0  0  0
  -15.5885    9.0000    0.0000 C   0  0  0  0  0  0  0  0  0  0  0  0
  -16.3385    7.7010    0.0000 F   0  0  0  0  0  0  0  0  0  0  0  0
  -14.8385   10.2990    0.0000 F   0  0  0  0  0  0  0  0  0  0  0  0
  -16.8875    9.7500    0.0000 C   0  0  0  0  0  0  0  0  0  0  0  0
  -16.1375   11.0490    0.0000 F   0  0  0  0  0  0  0  0  0  0  0  0
  -17.6375    8.4510    0.0000 F   0  0  0  0  0  0  0  0  0  0  0  0
  -18.1865   10.5000    0.0000 C   0  0  0  0  0  0  0  0  0  0  0  0
  -18.9365    9.2010    0.0000 F   0  0  0  0  0  0  0  0  0  0  0  0
  -17.4365   11.7990    0.0000 F   0  0  0  0  0  0  0  0  0  0  0  0
  -19.4856   11.2500    0.0000 C   0  0  0  0  0  0  0  0  0  0  0  0
  -20.7846   12.0000    0.0000 F   0  0  0  0  0  0  0  0  0  0  0  0
  -18.7356   12.5490    0.0000 F   0  0  0  0  0  0  0  0  0  0  0  0
  -20.2356    9.9510    0.0000 F   0  0  0  0  0  0  0  0  0  0  0  0
  1  2  2  0
  2  3  1  0
  2  4  1  0
  4  5  1  0
  5  6  1  0
  6  7  1  0
  7  8  1  0
  8  9  1  0
  7 10  1  0
 10 11  1  0
 10 12  1  0
 12 13  1  0
 12 14  1  0
 12 15  1  0
 15 16  1  0
 15 17  1  0
 15 18  1  0
 18 19  1  0
 18 20  1  0
 18 21  1  0
 21 22  1  0
 21 23  1  0
 21 24  1  0
 24 25  1  0
 24 26  1  0
 24 27  1  0
 27 28  1  0
 27 29  1  0
 27 30  1  0
 30 31  1  0
 30 32  1  0
 30 33  1  0
 33 34  1  0
 33 35  1  0
 33 36  1  0
 36 37  1  0
 36 38  1  0
 36 39  1  0
 39 40  1  0
 39 41  1  0
 39 42  1  0
 42 43  1  0
 42 44  1  0
 42 45  1  0
 45 46  1  0
 45 47  1  0
 45 48  1  0
M  END
$$$$

     RDKit          2D

 19 18  0  0  0  0  0  0  0  0999 V2000
    1.2990    2.2500    0.0000 O   0  0  0  0  0  0  0  0  0  0  0  0
    1.2990    0.7500    0.0000 C   0  0  0  0  0  0  0  0  0  0  0  0
    2.5981   -0.0000    0.0000 O   0  0  0  0  0  0  0  0  0  0  0  0
    0.0000    0.0000    0.0000 C   0  0  0  0  0  0  0  0  0  0  0  0
   -1.2990    0.7500    0.0000 C   0  0  0  0  0  0  0  0  0  0  0  0
   -1.2990    2.2500    0.0000 F   0  0  0  0  0  0  0  0  0  0  0  0
   -2.5981    0.0000    0.0000 C   0  0  0  0  0  0  0  0  0  0  0  0
   -3.3481    1.2990    0.0000 F   0  0  0  0  0  0  0  0  0  0  0  0
   -1.8481   -1.2990    0.0000 F   0  0  0  0  0  0  0  0  0  0  0  0
   -3.8971   -0.7500    0.0000 C   0  0  0  0  0  0  0  0  0  0  0  0
   -3.1471   -2.0490    0.0000 F   0  0  0  0  0  0  0  0  0  0  0  0
   -4.6471    0.5490    0.0000 F   0  0  0  0  0  0  0  0  0  0  0  0
   -5.1962   -1.5000    0.0000 C   0  0  0  0  0  0  0  0  0  0  0  0
   -5.9462   -0.2010    0.0000 F   0  0  0  0  0  0  0  0  0  0  0  0
   -4.4462   -2.7990    0.0000 F   0  0  0  0  0  0  0  0  0  0  0  0
   -6.4952   -2.2500    0.0000 C   0  0  0  0  0  0  0  0  0  0  0  0
   -7.7942   -3.0000    0.0000 F   0  0  0  0  0  0  0  0  0  0  0  0
   -5.7452   -3.5490    0.0000 F   0  0  0  0  0  0  0  0  0  0  0  0
   -7.2452   -0.9510    0.0000 F   0  0  0  0  0  0  0  0  0  0  0  0
  1  2  2  0
  2  3  1  0
  2  4  1  0
  4  5  2  3
  5  6  1  0
  5  7  1  0
  7  8  1  0
  7  9  1  0
  7 10  1  0
 10 11  1  0
 10 12  1  0
 10 13  1  0
 13 14  1  0
 13 15  1  0
 13 16  1  0
 16 17  1  0
 16 18  1  0
 16 19  1  0
M  END
$$$$

     RDKit          2D

 22 21  0  0  0  0  0  0  0  0999 V2000
    0.0000   -2.5981    0.0000 O   0  0  0  0  0  0  0  0  0  0  0  0
   -0.7500   -1.2990    0.0000 C   0  0  0  0  0  0  0  0  0  0  0  0
   -2.2500   -1.2990    0.0000 O   0  0  0  0  0  0  0  0  0  0  0  0
    0.0000    0.0000    0.0000 C   0  0  0  0  0  0  0  0  0  0  0  0
    1.5000    0.0000    0.0000 C   0  0  0  0  0  0  0  0  0  0  0  0
    2.2500   -1.2990    0.0000 F   0  0  0  0  0  0  0  0  0  0  0  0
    2.2500    1.2990    0.0000 C   0  0  0  0  0  0  0  0  0  0  0  0
    3.5490    0.5490    0.0000 F   0  0  0  0  0  0  0  0  0  0  0  0
    0.9510    2.0490    0.0000 F   0  0  0  0  0  0  0  0  0  0  0  0
    3.0000    2.5981    0.0000 C   0  0  0  0  0  0  0  0  0  0  0  0
    1.7010    3.3481    0.0000 F   0  0  0  0  0  0  0  0  0  0  0  0
    4.2990    1.8481    0.0000 F   0  0  0  0  0  0  0  0  0  0  0  0
    3.7500    3.8971    0.0000 C   0  0  0  0  0  0  0  0  0  0  0  0
    5.0490    3.1471    0.0000 F   0  0  0  0  0  0  0  0  0  0  0  0
    2.4510    4.6471    0.0000 F   0  0  0  0  0  0  0  0  0  0  0  0
    4.5000    5.1962    0.0000 C   0  0  0  0  0  0  0  0  0  0  0  0
    3.2010    5.9462    0.0000 F   0  0  0  0  0  0  0  0  0  0  0  0
    5.7990    4.4462    0.0000 F   0  0  0  0  0  0  0  0  0  0  0  0
    5.2500    6.4952    0.0000 C   0  0  0  0  0  0  0  0  0  0  0  0
    6.0000    7.7942    0.0000 F   0  0  0  0  0  0  0  0  0  0  0  0
    6.5490    5.7452    0.0000 F   0  0  0  0  0  0  0  0  0  0  0  0
    3.9510    7.2452    0.0000 F   0  0  0  0  0  0  0  0  0  0  0  0
  1  2  2  0
  2  3  1  0
  2  4  1  0
  4  5  2  0
  5  6  1  0
  5  7  1  0
  7  8  1  0
  7  9  1  0
  7 10  1  0
 10 11  1  0
 10 12  1  0
 10 13  1  0
 13 14  1  0
 13 15  1  0
 13 16  1  0
 16 17  1  0
 16 18  1  0
 16 19  1  0
 19 20  1  0
 19 21  1  0
 19 22  1  0
M  END
$$$$

     RDKit          2D

 37 36  0  0  0  0  0  0  0  0999 V2000
    1.2990    2.2500    0.0000 O   0  0  0  0  0  0  0  0  0  0  0  0
    1.2990    0.7500    0.0000 C   0  0  0  0  0  0  0  0  0  0  0  0
    2.5981   -0.0000    0.0000 O   0  0  0  0  0  0  0  0  0  0  0  0
    0.0000    0.0000    0.0000 C   0  0  0  0  0  0  0  0  0  0  0  0
   -1.2990    0.7500    0.0000 C   0  0  0  0  0  0  0  0  0  0  0  0
   -1.2990    2.2500    0.0000 F   0  0  0  0  0  0  0  0  0  0  0  0
   -2.5981    0.0000    0.0000 C   0  0  0  0  0  0  0  0  0  0  0  0
   -3.3481    1.2990    0.0000 F   0  0  0  0  0  0  0  0  0  0  0  0
   -1.8481   -1.2990    0.0000 F   0  0  0  0  0  0  0  0  0  0  0  0
   -3.8971   -0.7500    0.0000 C   0  0  0  0  0  0  0  0  0  0  0  0
   -3.1471   -2.0490    0.0000 F   0  0  0  0  0  0  0  0  0  0  0  0
   -4.6471    0.5490    0.0000 F   0  0  0  0  0  0  0  0  0  0  0  0
   -5.1962   -1.5000    0.0000 C   0  0  0  0  0  0  0  0  0  0  0  0
   -5.9462   -0.2010    0.0000 F   0  0  0  0  0  0  0  0  0  0  0  0
   -4.4462   -2.7990    0.0000 F   0  0  0  0  0  0  0  0  0  0  0  0
   -6.4952   -2.2500    0.0000 C   0  0  0  0  0  0  0  0  0  0  0  0
   -5.7452   -3.5490    0.0000 F   0  0  0  0  0  0  0  0  0  0  0  0
   -7.2452   -0.9510    0.0000 F   0  0  0  0  0  0  0  0  0  0  0  0
   -7.7942   -3.0000    0.0000 C   0  0  0  0  0  0  0  0  0  0  0  0
   -8.5442   -1.7010    0.0000 F   0  0  0  0  0  0  0  0  0  0  0  0
   -7.0442   -4.2990    0.0000 F   0  0  0  0  0  0  0  0  0  0  0  0
   -9.0933   -3.7500    0.0000 C   0  0  0  0  0  0  0  0  0  0  0  0
   -8.3433   -5.0490    0.0000 F   0  0  0  0  0  0  0  0  0  0  0  0
   -9.8433   -2.4510    0.0000 F   0  0  0  0  0  0  0  0  0  0  0  0
  -10.3923   -4.5000    0.0000 C   0  0  0  0  0  0  0  0  0  0  0  0
  -11.1423   -3.2010    0.0000 F   0  0  0  0  0  0  0  0  0  0  0  0
   -9.6423   -5.7990    0.0000 F   0  0  0  0  0  0  0  0  0  0  0  0
  -11.6913   -5.2500    0.0000 C   0  0  0  0  0  0  0  0  0  0  0  0
  -10.9413   -6.5490    0.0000 F   0  0  0  0  0  0  0  0  0  0  0  0
  -12.4413   -3.9510    0.0000 F   0  0  0  0  0  0  0  0  0  0  0  0
  -12.9904   -6.0000    0.0000 C   0  0  0  0  0  0  0  0  0  0  0  0
  -13.7404   -4.7010    0.0000 F   0  0  0  0  0  0  0  0  0  0  0  0
  -12.2404   -7.2990    0.0000 F   0  0  0  0  0  0  0  0  0  0  0  0
  -14.2894   -6.7500    0.0000 C   0  0  0  0  0  0  0  0  0  0  0  0
  -15.5885   -7.5000    0.0000 F   0  0  0  0  0  0  0  0  0  0  0  0
  -13.5394   -8.0490    0.0000 F   0  0  0  0  0  0  0  0  0  0  0  0
  -15.0394   -5.4510    0.0000 F   0  0  0  0  0  0  0  0  0  0  0  0
  1  2  2  0
  2  3  1  0
  2  4  1  0
  4  5  2  3
  5  6  1  0
  5  7  1  0
  7  8  1  0
  7  9  1  0
  7 10  1  0
 10 11  1  0
 10 12  1  0
 10 13  1  0
 13 14  1  0
 13 15  1  0
 13 16  1  0
 16 17  1  0
 16 18  1  0
 16 19  1  0
 19 20  1  0
 19 21  1  0
 19 22  1  0
 22 23  1  0
 22 24  1  0
 22 25  1  0
 25 26  1  0
 25 27  1  0
 25 28  1  0
 28 29  1  0
 28 30  1  0
 28 31  1  0
 31 32  1  0
 31 33  1  0
 31 34  1  0
 34 35  1  0
 34 36  1  0
 34 37  1  0
M  END
$$$$

     RDKit          2D

 30 29  0  0  0  0  0  0  0  0999 V2000
   -2.0490   -0.5490    0.0000 O   0  0  0  0  0  0  0  0  0  0  0  0
   -1.2990    0.7500    0.0000 S   0  0  0  0  0  0  0  0  0  0  0  0
   -0.5490    2.0490    0.0000 O   0  0  0  0  0  0  0  0  0  0  0  0
   -2.5981    1.5000    0.0000 O   0  0  0  0  0  0  0  0  0  0  0  0
    0.0000    0.0000    0.0000 C   0  0  0  0  0  0  0  0  0  0  0  0
    1.2990    0.7500    0.0000 C   0  0  0  0  0  0  0  0  0  0  0  0
    2.5981   -0.0000    0.0000 C   0  0  0  0  0  0  0  0  0  0  0  0
    2.5981   -1.5000    0.0000 F   0  0  0  0  0  0  0  0  0  0  0  0
    3.8971    0.7500    0.0000 C   0  0  0  0  0  0  0  0  0  0  0  0
    4.6471   -0.5490    0.0000 F   0  0  0  0  0  0  0  0  0  0  0  0
    3.1471    2.0490    0.0000 F   0  0  0  0  0  0  0  0  0  0  0  0
    5.1962    1.5000    0.0000 C   0  0  0  0  0  0  0  0  0  0  0  0
    4.4462    2.7990    0.0000 F   0  0  0  0  0  0  0  0  0  0  0  0
    5.9462    0.2010    0.0000 F   0  0  0  0  0  0  0  0  0  0  0  0
    6.4952    2.2500    0.0000 C   0  0  0  0  0  0  0  0  0  0  0  0
    7.2452    0.9510    0.0000 F   0  0  0  0  0  0  0  0  0  0  0  0
    5.7452    3.5490    0.0000 F   0  0  0  0  0  0  0  0  0  0  0  0
    7.7942    3.0000    0.0000 C   0  0  0  0  0  0  0  0  0  0  0  0
    7.0442    4.2990    0.0000 F   0  0  0  0  0  0  0  0  0  0  0  0
    8.5442    1.7010    0.0000 F   0  0  0  0  0  0  0  0  0  0  0  0
    9.0933    3.7500    0.0000 C   0  0  0  0  0  0  0  0  0  0  0  0
    9.8433    2.4510    0.0000 F   0  0  0  0  0  0  0  0  0  0  0  0
    8.3433    5.0490    0.0000 F   0  0  0  0  0  0  0  0  0  0  0  0
   10.3923    4.5000    0.0000 C   0  0  0  0  0  0  0  0  0  0  0  0
    9.6423    5.7990    0.0000 F   0  0  0  0  0  0  0  0  0  0  0  0
   11.1423    3.2010    0.0000 F   0  0  0  0  0  0  0  0  0  0  0  0
   11.6913    5.2500    0.0000 C   0  0  0  0  0  0  0  0  0  0  0  0
   12.9904    6.0000    0.0000 F   0  0  0  0  0  0  0  0  0  0  0  0
   12.4413    3.9510    0.0000 F   0  0  0  0  0  0  0  0  0  0  0  0
   10.9413    6.5490    0.0000 F   0  0  0  0  0  0  0  0  0  0  0  0
  1  2  2  0
  2  3  2  0
  2  4  1  0
  2  5  1  0
  5  6  1  0
  6  7  2  3
  7  8  1  0
  7  9  1  0
  9 10  1  0
  9 11  1  0
  9 12  1  0
 12 13  1  0
 12 14  1  0
 12 15  1  0
 15 16  1  0
 15 17  1  0
 15 18  1  0
 18 19  1  0
 18 20  1  0
 18 21  1  0
 21 22  1  0
 21 23  1  0
 21 24  1  0
 24 25  1  0
 24 26  1  0
 24 27  1  0
 27 28  1  0
 27 29  1  0
 27 30  1  0
M  END
$$$$

     RDKit          2D

 61 60  0  0  0  0  0  0  0  0999 V2000
    0.0000    0.0000    0.0000 C   0  0  0  0  0  0  0  0  0  0  0  0
    1.2990    0.7500    0.0000 C   0  0  0  0  0  0  0  0  0  0  0  0
    1.2990    2.2500    0.0000 O   0  0  0  0  0  0  0  0  0  0  0  0
    2.5981   -0.0000    0.0000 O   0  0  0  0  0  0  0  0  0  0  0  0
    3.8971    0.7500    0.0000 C   0  0  0  0  0  0  0  0  0  0  0  0
    5.1962   -0.0000    0.0000 C   0  0  0  0  0  0  0  0  0  0  0  0
    6.4952    0.7500    0.0000 C   0  0  0  0  0  0  0  0  0  0  0  0
    7.7942   -0.0000    0.0000 O   0  0  0  0  0  0  0  0  0  0  0  0
    5.1962   -1.5000    0.0000 C   0  0  0  0  0  0  0  0  0  0  0  0
    6.6962   -1.5000    0.0000 F   0  0  0  0  0  0  0  0  0  0  0  0
    3.6962   -1.5000    0.0000 F   0  0  0  0  0  0  0  0  0  0  0  0
    5.1962   -3.0000    0.0000 C   0  0  0  0  0  0  0  0  0  0  0  0
    3.6962   -3.0000    0.0000 F   0  0  0  0  0  0  0  0  0  0  0  0
    6.6962   -3.0000    0.0000 F   0  0  0  0  0  0  0  0  0  0  0  0
    5.1962   -4.5000    0.0000 C   0  0  0  0  0  0  0  0  0  0  0  0
    6.6962   -4.5000    0.0000 F   0  0  0  0  0  0  0  0  0  0  0  0
    3.6962   -4.5000    0.0000 F   0  0  0  0  0  0  0  0  0  0  0  0
    5.1962   -6.0000    0.0000 C   0  0  0  0  0  0  0  0  0  0  0  0
    3.6962   -6.0000    0.0000 F   0  0  0  0  0  0  0  0  0  0  0  0
    6.6962   -6.0000    0.0000 F   0  0  0  0  0  0  0  0  0  0  0  0
    5.1962   -7.5000    0.0000 C   0  0  0  0  0  0  0  0  0  0  0  0
    6.6962   -7.5000    0.0000 F   0  0  0  0  0  0  0  0  0  0  0  0
    3.6962   -7.5000    0.0000 F   0  0  0  0  0  0  0  0  0  0  0  0
    5.1962   -9.0000    0.0000 C   0  0  0  0  0  0  0  0  0  0  0  0
    3.6962   -9.0000    0.0000 F   0  0  0  0  0  0  0  0  0  0  0  0
    6.6962   -9.0000    0.0000 F   0  0  0  0  0  0  0  0  0  0  0  0
    5.1962  -10.5000    0.0000 C   0  0  0  0  0  0  0  0  0  0  0  0
    6.6962  -10.5000    0.0000 F   0  0  0  0  0  0  0  0  0  0  0  0
    3.6962  -10.5000    0.0000 F   0  0  0  0  0  0  0  0  0  0  0  0
    5.1962  -12.0000    0.0000 C   0  0  0  0  0  0  0  0  0  0  0  0
    3.6962  -12.0000    0.0000 F   0  0  0  0  0  0  0  0  0  0  0  0
    6.6962  -12.0000    0.0000 F   0  0  0  0  0  0  0  0  0  0  0  0
    5.1962  -13.5000    0.0000 C   0  0  0  0  0  0  0  0  0  0  0  0
    6.6962  -13.5000    0.0000 F   0  0  0  0  0  0  0  0  0  0  0  0
    3.6962  -13.5000    0.0000 F   0  0  0  0  0  0  0  0  0  0  0  0
    5.1962  -15.0000    0.0000 C   0  0  0  0  0  0  0  0  0  0  0  0
    3.6962  -15.0000    0.0000 F   0  0  0  0  0  0  0  0  0  0  0  0
    6.6962  -15.0000    0.0000 F   0  0  0  0  0  0  0  0  0  0  0  0
    5.1962  -16.5000    0.0000 C   0  0  0  0  0  0  0  0  0  0  0  0
    6.6962  -16.5000    0.0000 F   0  0  0  0  0  0  0  0  0  0  0  0
    3.6962  -16.5000    0.0000 F   0  0  0  0  0  0  0  0  0  0  0  0
    5.1962  -18.0000    0.0000 C   0  0  0  0  0  0  0  0  0  0  0  0
    3.6962  -18.0000    0.0000 F   0  0  0  0  0  0  0  0  0  0  0  0
    6.6962  -18.0000    0.0000 F   0  0  0  0  0  0  0  0  0  0  0  0
    5.1962  -19.5000    0.0000 C   0  0  0  0  0  0  0  0  0  0  0  0
    6.6962  -19.5000    0.0000 F   0  0  0  0  0  0  0  0  0  0  0  0
    3.6962  -19.5000    0.0000 F   0  0  0  0  0  0  0  0  0  0  0  0
    5.1962  -21.0000    0.0000 C   0  0  0  0  0  0  0  0  0  0  0  0
    5.1962  -22.5000    0.0000 F   0  0  0  0  0  0  0  0  0  0  0  0
    3.6962  -21.0000    0.0000 F   0  0  0  0  0  0  0  0  0  0  0  0
    6.6962  -21.0000    0.0000 F   0  0  0  0  0  0  0  0  0  0  0  0
    3.8971    2.2500    0.0000 C   0  0  0  0  0  0  0  0  0  0  0  0
    2.5981    3.0000    0.0000 C   0  0  0  0  0  0  0  0  0  0  0  0
    2.5981    4.5000    0.0000 O   0  0  0  0  0  0  0  0  0  0  0  0
    5.1962    3.0000    0.0000 N   0  0  0  0  0  0  0  0  0  0  0  0
    4.4462    4.2990    0.0000 C   0  0  0  0  0  0  0  0  0  0  0  0
    5.9462    1.7010    0.0000 C   0  0  0  0  0  0  0  0  0  0  0  0
    6.4952    3.7500    0.0000 C   0  0  0  0  0  0  0  0  0  0  0  0
    6.4952    5.2500    0.0000 C   0  0  0  0  0  0  0  0  0  0  0  0
    5.1962    6.0000    0.0000 O   0  0  0  0  0  0  0  0  0  0  0  0
    7.7942    6.0000    0.0000 O   0  0  0  0  0  0  0  0  0  0  0  0
  1  2  1  0
  2  3  2  0
  2  4  1  0
  4  5  1  0
  5  6  1  0
  6  7  1  0
  7  8  1  0
  6  9  1  0
  9 10  1  0
  9 11  1  0
  9 12  1  0
 12 13  1  0
 12 14  1  0
 12 15  1  0
 15 16  1  0
 15 17  1  0
 15 18  1  0
 18 19  1  0
 18 20  1  0
 18 21  1  0
 21 22  1  0
 21 23  1  0
 21 24  1  0
 24 25  1  0
 24 26  1  0
 24 27  1  0
 27 28  1  0
 27 29  1  0
 27 30  1  0
 30 31  1  0
 30 32  1  0
 30 33  1  0
 33 34  1  0
 33 35  1  0
 33 36  1  0
 36 37  1  0
 36 38  1  0
 36 39  1  0
 39 40  1  0
 39 41  1  0
 39 42  1  0
 42 43  1  0
 42 44  1  0
 42 45  1  0
 45 46  1  0
 45 47  1  0
 45 48  1  0
 48 49  1  0
 48 50  1  0
 48 51  1  0
  5 52  1  0
 52 53  1  0
 53 54  1  0
 52 55  1  0
 55 56  1  0
 55 57  1  0
 55 58  1  0
 58 59  1  0
 59 60  2  0
 59 61  1  0
M  CHG  2  55   1  61  -1
M  END
$$$$

     RDKit          2D

 41 40  0  0  0  0  0  0  0  0999 V2000
    0.0000    0.0000    0.0000 C   0  0  0  0  0  0  0  0  0  0  0  0
    1.2990    0.7500    0.0000 N   0  0  0  0  0  0  0  0  0  0  0  0
    2.5981    1.5000    0.0000 C   0  0  0  0  0  0  0  0  0  0  0  0
    2.0490   -0.5490    0.0000 C   0  0  0  0  0  0  0  0  0  0  0  0
    3.5490   -0.5490    0.0000 C   0  0  0  0  0  0  0  0  0  0  0  0
    4.2990   -1.8481    0.0000 C   0  0  0  0  0  0  0  0  0  0  0  0
    5.7990   -1.8481    0.0000 C   0  0  0  0  0  0  0  0  0  0  0  0
    5.7990   -3.3481    0.0000 F   0  0  0  0  0  0  0  0  0  0  0  0
    5.7990   -0.3481    0.0000 F   0  0  0  0  0  0  0  0  0  0  0  0
    7.2990   -1.8481    0.0000 C   0  0  0  0  0  0  0  0  0  0  0  0
    7.2990   -0.3481    0.0000 F   0  0  0  0  0  0  0  0  0  0  0  0
    7.2990   -3.3481    0.0000 F   0  0  0  0  0  0  0  0  0  0  0  0
    8.7990   -1.8481    0.0000 C   0  0  0  0  0  0  0  0  0  0  0  0
    8.7990   -3.3481    0.0000 F   0  0  0  0  0  0  0  0  0  0  0  0
    8.7990   -0.3481    0.0000 F   0  0  0  0  0  0  0  0  0  0  0  0
   10.2990   -1.8481    0.0000 C   0  0  0  0  0  0  0  0  0  0  0  0
   10.2990   -0.3481    0.0000 F   0  0  0  0  0  0  0  0  0  0  0  0
   10.2990   -3.3481    0.0000 F   0  0  0  0  0  0  0  0  0  0  0  0
   11.7990   -1.8481    0.0000 C   0  0  0  0  0  0  0  0  0  0  0  0
   11.7990   -3.3481    0.0000 F   0  0  0  0  0  0  0  0  0  0  0  0
   11.7990   -0.3481    0.0000 F   0  0  0  0  0  0  0  0  0  0  0  0
   13.2990   -1.8481    0.0000 C   0  0  0  0  0  0  0  0  0  0  0  0
   13.2990   -0.3481    0.0000 F   0  0  0  0  0  0  0  0  0  0  0  0
   13.2990   -3.3481    0.0000 F   0  0  0  0  0  0  0  0  0  0  0  0
   14.7990   -1.8481    0.0000 C   0  0  0  0  0  0  0  0  0  0  0  0
   14.7990   -3.3481    0.0000 F   0  0  0  0  0  0  0  0  0  0  0  0
   14.7990   -0.3481    0.0000 F   0  0  0  0  0  0  0  0  0  0  0  0
   16.2990   -1.8481    0.0000 C   0  0  0  0  0  0  0  0  0  0  0  0
   16.2990   -0.3481    0.0000 F   0  0  0  0  0  0  0  0  0  0  0  0
   16.2990   -3.3481    0.0000 F   0  0  0  0  0  0  0  0  0  0  0  0
   17.7990   -1.8481    0.0000 C   0  0  0  0  0  0  0  0  0  0  0  0
   17.7990   -3.3481    0.0000 F   0  0  0  0  0  0  0  0  0  0  0  0
   17.7990   -0.3481    0.0000 F   0  0  0  0  0  0  0  0  0  0  0  0
   19.2990   -1.8481    0.0000 C   0  0  0  0  0  0  0  0  0  0  0  0
   20.7990   -1.8481    0.0000 F   0  0  0  0  0  0  0  0  0  0  0  0
   19.2990   -0.3481    0.0000 F   0  0  0  0  0  0  0  0  0  0  0  0
   19.2990   -3.3481    0.0000 F   0  0  0  0  0  0  0  0  0  0  0  0
    0.5490    2.0490    0.0000 C   0  0  0  0  0  0  0  0  0  0  0  0
    1.2990    3.3481    0.0000 C   0  0  0  0  0  0  0  0  0  0  0  0
    2.7990    3.3481    0.0000 O   0  0  0  0  0  0  0  0  0  0  0  0
    0.5490    4.6471    0.0000 O   0  0  0  0  0  0  0  0  0  0  0  0
  1  2  1  0
  2  3  1  0
  2  4  1  0
  4  5  1  0
  5  6  1  0
  6  7  1  0
  7  8  1  0
  7  9  1  0
  7 10  1  0
 10 11  1  0
 10 12  1  0
 10 13  1  0
 13 14  1  0
 13 15  1  0
 13 16  1  0
 16 17  1  0
 16 18  1  0
 16 19  1  0
 19 20  1  0
 19 21  1  0
 19 22  1  0
 22 23  1  0
 22 24  1  0
 22 25  1  0
 25 26  1  0
 25 27  1  0
 25 28  1  0
 28 29  1  0
 28 30  1  0
 28 31  1  0
 31 32  1  0
 31 33  1  0
 31 34  1  0
 34 35  1  0
 34 36  1  0
 34 37  1  0
  2 38  1  0
 38 39  1  0
 39 40  2  0
 39 41  1  0
M  CHG  2   2   1  41  -1
M  END
$$$$

     RDKit          2D

 33 32  0  0  0  0  0  0  0  0999 V2000
   -1.2990    2.2500    0.0000 O   0  0  0  0  0  0  0  0  0  0  0  0
   -1.2990    0.7500    0.0000 C   0  0  0  0  0  0  0  0  0  0  0  0
   -2.5981    0.0000    0.0000 O   0  0  0  0  0  0  0  0  0  0  0  0
    0.0000    0.0000    0.0000 C   0  0  0  0  0  0  0  0  0  0  0  0
    1.2990    0.7500    0.0000 C   0  0  0  0  0  0  0  0  0  0  0  0
    2.5981   -0.0000    0.0000 C   0  0  0  0  0  0  0  0  0  0  0  0
    3.3481    1.2990    0.0000 F   0  0  0  0  0  0  0  0  0  0  0  0
    1.8481   -1.2990    0.0000 F   0  0  0  0  0  0  0  0  0  0  0  0
    3.8971   -0.7500    0.0000 C   0  0  0  0  0  0  0  0  0  0  0  0
    3.1471   -2.0490    0.0000 F   0  0  0  0  0  0  0  0  0  0  0  0
    4.6471    0.5490    0.0000 F   0  0  0  0  0  0  0  0  0  0  0  0
    5.1962   -1.5000    0.0000 C   0  0  0  0  0  0  0  0  0  0  0  0
    5.9462   -0.2010    0.0000 F   0  0  0  0  0  0  0  0  0  0  0  0
    4.4462   -2.7990    0.0000 F   0  0  0  0  0  0  0  0  0  0  0  0
    6.4952   -2.2500    0.0000 C   0  0  0  0  0  0  0  0  0  0  0  0
    5.7452   -3.5490    0.0000 F   0  0  0  0  0  0  0  0  0  0  0  0
    7.2452   -0.9510    0.0000 F   0  0  0  0  0  0  0  0  0  0  0  0
    7.7942   -3.0000    0.0000 C   0  0  0  0  0  0  0  0  0  0  0  0
    8.5442   -1.7010    0.0000 F   0  0  0  0  0  0  0  0  0  0  0  0
    7.0442   -4.2990    0.0000 F   0  0  0  0  0  0  0  0  0  0  0  0
    9.0933   -3.7500    0.0000 C   0  0  0  0  0  0  0  0  0  0  0  0
    8.3433   -5.0490    0.0000 F   0  0  0  0  0  0  0  0  0  0  0  0
    9.8433   -2.4510    0.0000 F   0  0  0  0  0  0  0  0  0  0  0  0
   10.3923   -4.5000    0.0000 C   0  0  0  0  0  0  0  0  0  0  0  0
   11.1423   -3.2010    0.0000 F   0  0  0  0  0  0  0  0  0  0  0  0
    9.6423   -5.7990    0.0000 F   0  0  0  0  0  0  0  0  0  0  0  0
   11.6913   -5.2500    0.0000 C   0  0  0  0  0  0  0  0  0  0  0  0
   10.9413   -6.5490    0.0000 F   0  0  0  0  0  0  0  0  0  0  0  0
   12.4413   -3.9510    0.0000 F   0  0  0  0  0  0  0  0  0  0  0  0
   12.9904   -6.0000    0.0000 C   0  0  0  0  0  0  0  0  0  0  0  0
   14.2894   -6.7500    0.0000 F   0  0  0  0  0  0  0  0  0  0  0  0
   13.7404   -4.7010    0.0000 F   0  0  0  0  0  0  0  0  0  0  0  0
   12.2404   -7.2990    0.0000 F   0  0  0  0  0  0  0  0  0  0  0  0
  1  2  2  0
  2  3  1  0
  2  4  1  0
  4  5  1  0
  5  6  1  0
  6  7  1  0
  6  8  1  0
  6  9  1  0
  9 10  1  0
  9 11  1  0
  9 12  1  0
 12 13  1  0
 12 14  1  0
 12 15  1  0
 15 16  1  0
 15 17  1  0
 15 18  1  0
 18 19  1  0
 18 20  1  0
 18 21  1  0
 21 22  1  0
 21 23  1  0
 21 24  1  0
 24 25  1  0
 24 26  1  0
 24 27  1  0
 27 28  1  0
 27 29  1  0
 27 30  1  0
 30 31  1  0
 30 32  1  0
 30 33  1  0
M  END
$$$$

     RDKit          2D

 39 38  0  0  0  0  0  0  0  0999 V2000
   -1.2990    2.2500    0.0000 O   0  0  0  0  0  0  0  0  0  0  0  0
   -1.2990    0.7500    0.0000 C   0  0  0  0  0  0  0  0  0  0  0  0
   -2.5981    0.0000    0.0000 O   0  0  0  0  0  0  0  0  0  0  0  0
    0.0000    0.0000    0.0000 C   0  0  0  0  0  0  0  0  0  0  0  0
    1.2990    0.7500    0.0000 C   0  0  0  0  0  0  0  0  0  0  0  0
    2.5981   -0.0000    0.0000 C   0  0  0  0  0  0  0  0  0  0  0  0
    3.3481    1.2990    0.0000 F   0  0  0  0  0  0  0  0  0  0  0  0
    1.8481   -1.2990    0.0000 F   0  0  0  0  0  0  0  0  0  0  0  0
    3.8971   -0.7500    0.0000 C   0  0  0  0  0  0  0  0  0  0  0  0
    3.1471   -2.0490    0.0000 F   0  0  0  0  0  0  0  0  0  0  0  0
    4.6471    0.5490    0.0000 F   0  0  0  0  0  0  0  0  0  0  0  0
    5.1962   -1.5000    0.0000 C   0  0  0  0  0  0  0  0  0  0  0  0
    5.9462   -0.2010    0.0000 F   0  0  0  0  0  0  0  0  0  0  0  0
    4.4462   -2.7990    0.0000 F   0  0  0  0  0  0  0  0  0  0  0  0
    6.4952   -2.2500    0.0000 C   0  0  0  0  0  0  0  0  0  0  0  0
    5.7452   -3.5490    0.0000 F   0  0  0  0  0  0  0  0  0  0  0  0
    7.2452   -0.9510    0.0000 F   0  0  0  0  0  0  0  0  0  0  0  0
    7.7942   -3.0000    0.0000 C   0  0  0  0  0  0  0  0  0  0  0  0
    8.5442   -1.7010    0.0000 F   0  0  0  0  0  0  0  0  0  0  0  0
    7.0442   -4.2990    0.0000 F   0  0  0  0  0  0  0  0  0  0  0  0
    9.0933   -3.7500    0.0000 C   0  0  0  0  0  0  0  0  0  0  0  0
    8.3433   -5.0490    0.0000 F   0  0  0  0  0  0  0  0  0  0  0  0
    9.8433   -2.4510    0.0000 F   0  0  0  0  0  0  0  0  0  0  0  0
   10.3923   -4.5000    0.0000 C   0  0  0  0  0  0  0  0  0  0  0  0
   11.1423   -3.2010    0.0000 F   0  0  0  0  0  0  0  0  0  0  0  0
    9.6423   -5.7990    0.0000 F   0  0  0  0  0  0  0  0  0  0  0  0
   11.6913   -5.2500    0.0000 C   0  0  0  0  0  0  0  0  0  0  0  0
   10.9413   -6.5490    0.0000 F   0  0  0  0  0  0  0  0  0  0  0  0
   12.4413   -3.9510    0.0000 F   0  0  0  0  0  0  0  0  0  0  0  0
   12.9904   -6.0000    0.0000 C   0  0  0  0  0  0  0  0  0  0  0  0
   13.7404   -4.7010    0.0000 F   0  0  0  0  0  0  0  0  0  0  0  0
   12.2404   -7.2990    0.0000 F   0  0  0  0  0  0  0  0  0  0  0  0
   14.2894   -6.7500    0.0000 C   0  0  0  0  0  0  0  0  0  0  0  0
   13.5394   -8.0490    0.0000 F   0  0  0  0  0  0  0  0  0  0  0  0
   15.0394   -5.4510    0.0000 F   0  0  0  0  0  0  0  0  0  0  0  0
   15.5885   -7.5000    0.0000 C   0  0  0  0  0  0  0  0  0  0  0  0
   16.8875   -8.2500    0.0000 F   0  0  0  0  0  0  0  0  0  0  0  0
   16.3385   -6.2010    0.0000 F   0  0  0  0  0  0  0  0  0  0  0  0
   14.8385   -8.7990    0.0000 F   0  0  0  0  0  0  0  0  0  0  0  0
  1  2  2  0
  2  3  1  0
  2  4  1  0
  4  5  1  0
  5  6  1  0
  6  7  1  0
  6  8  1  0
  6  9  1  0
  9 10  1  0
  9 11  1  0
  9 12  1  0
 12 13  1  0
 12 14  1  0
 12 15  1  0
 15 16  1  0
 15 17  1  0
 15 18  1  0
 18 19  1  0
 18 20  1  0
 18 21  1  0
 21 22  1  0
 21 23  1  0
 21 24  1  0
 24 25  1  0
 24 26  1  0
 24 27  1  0
 27 28  1  0
 27 29  1  0
 27 30  1  0
 30 31  1  0
 30 32  1  0
 30 33  1  0
 33 34  1  0
 33 35  1  0
 33 36  1  0
 36 37  1  0
 36 38  1  0
 36 39  1  0
M  END
$$$$

     RDKit          2D

 17 16  0  0  0  0  0  0  0  0999 V2000
   -2.0490   -0.5490    0.0000 O   0  0  0  0  0  0  0  0  0  0  0  0
   -1.2990    0.7500    0.0000 S   0  0  0  0  0  0  0  0  0  0  0  0
   -0.5490    2.0490    0.0000 O   0  0  0  0  0  0  0  0  0  0  0  0
   -2.5981    1.5000    0.0000 O   0  0  0  0  0  0  0  0  0  0  0  0
    0.0000    0.0000    0.0000 C   0  0  0  0  0  0  0  0  0  0  0  0
    1.2990    0.7500    0.0000 C   0  0  0  0  0  0  0  0  0  0  0  0
    2.5981   -0.0000    0.0000 C   0  0  0  0  0  0  0  0  0  0  0  0
    3.8971    0.7500    0.0000 C   0  0  0  0  0  0  0  0  0  0  0  0
    4.6471   -0.5490    0.0000 F   0  0  0  0  0  0  0  0  0  0  0  0
    3.1471    2.0490    0.0000 F   0  0  0  0  0  0  0  0  0  0  0  0
    5.1962    1.5000    0.0000 C   0  0  0  0  0  0  0  0  0  0  0  0
    4.4462    2.7990    0.0000 F   0  0  0  0  0  0  0  0  0  0  0  0
    5.9462    0.2010    0.0000 F   0  0  0  0  0  0  0  0  0  0  0  0
    6.4952    2.2500    0.0000 C   0  0  0  0  0  0  0  0  0  0  0  0
    7.7942    3.0000    0.0000 F   0  0  0  0  0  0  0  0  0  0  0  0
    7.2452    0.9510    0.0000 F   0  0  0  0  0  0  0  0  0  0  0  0
    5.7452    3.5490    0.0000 F   0  0  0  0  0  0  0  0  0  0  0  0
  1  2  2  0
  2  3  2  0
  2  4  1  0
  2  5  1  0
  5  6  1  0
  6  7  1  0
  7  8  1  0
  8  9  1  0
  8 10  1  0
  8 11  1  0
 11 12  1  0
 11 13  1  0
 11 14  1  0
 14 15  1  0
 14 16  1  0
 14 17  1  0
M  END
$$$$

     RDKit          2D

 32 31  0  0  0  0  0  0  0  0999 V2000
   -2.0490   -0.5490    0.0000 O   0  0  0  0  0  0  0  0  0  0  0  0
   -1.2990    0.7500    0.0000 S   0  0  0  0  0  0  0  0  0  0  0  0
   -0.5490    2.0490    0.0000 O   0  0  0  0  0  0  0  0  0  0  0  0
   -2.5981    1.5000    0.0000 O   0  0  0  0  0  0  0  0  0  0  0  0
    0.0000    0.0000    0.0000 C   0  0  0  0  0  0  0  0  0  0  0  0
    1.2990    0.7500    0.0000 C   0  0  0  0  0  0  0  0  0  0  0  0
    2.5981   -0.0000    0.0000 C   0  0  0  0  0  0  0  0  0  0  0  0
    3.8971    0.7500    0.0000 C   0  0  0  0  0  0  0  0  0  0  0  0
    4.6471   -0.5490    0.0000 F   0  0  0  0  0  0  0  0  0  0  0  0
    3.1471    2.0490    0.0000 F   0  0  0  0  0  0  0  0  0  0  0  0
    5.1962    1.5000    0.0000 C   0  0  0  0  0  0  0  0  0  0  0  0
    4.4462    2.7990    0.0000 F   0  0  0  0  0  0  0  0  0  0  0  0
    5.9462    0.2010    0.0000 F   0  0  0  0  0  0  0  0  0  0  0  0
    6.4952    2.2500    0.0000 C   0  0  0  0  0  0  0  0  0  0  0  0
    7.2452    0.9510    0.0000 F   0  0  0  0  0  0  0  0  0  0  0  0
    5.7452    3.5490    0.0000 F   0  0  0  0  0  0  0  0  0  0  0  0
    7.7942    3.0000    0.0000 C   0  0  0  0  0  0  0  0  0  0  0  0
    7.0442    4.2990    0.0000 F   0  0  0  0  0  0  0  0  0  0  0  0
    8.5442    1.7010    0.0000 F   0  0  0  0  0  0  0  0  0  0  0  0
    9.0933    3.7500    0.0000 C   0  0  0  0  0  0  0  0  0  0  0  0
    9.8433    2.4510    0.0000 F   0  0  0  0  0  0  0  0  0  0  0  0
    8.3433    5.0490    0.0000 F   0  0  0  0  0  0  0  0  0  0  0  0
   10.3923    4.5000    0.0000 C   0  0  0  0  0  0  0  0  0  0  0  0
    9.6423    5.7990    0.0000 F   0  0  0  0  0  0  0  0  0  0  0  0
   11.1423    3.2010    0.0000 F   0  0  0  0  0  0  0  0  0  0  0  0
   11.6913    5.2500    0.0000 C   0  0  0  0  0  0  0  0  0  0  0  0
   12.4413    3.9510    0.0000 F   0  0  0  0  0  0  0  0  0  0  0  0
   10.9413    6.5490    0.0000 F   0  0  0  0  0  0  0  0  0  0  0  0
   12.9904    6.0000    0.0000 C   0  0  0  0  0  0  0  0  0  0  0  0
   14.2894    6.7500    0.0000 F   0  0  0  0  0  0  0  0  0  0  0  0
   12.2404    7.2990    0.0000 F   0  0  0  0  0  0  0  0  0  0  0  0
   13.7404    4.7010    0.0000 F   0  0  0  0  0  0  0  0  0  0  0  0
  1  2  2  0
  2  3  2  0
  2  4  1  0
  2  5  1  0
  5  6  1  0
  6  7  1  0
  7  8  1  0
  8  9  1  0
  8 10  1  0
  8 11  1  0
 11 12  1  0
 11 13  1  0
 11 14  1  0
 14 15  1  0
 14 16  1  0
 14 17  1  0
 17 18  1  0
 17 19  1  0
 17 20  1  0
 20 21  1  0
 20 22  1  0
 20 23  1  0
 23 24  1  0
 23 25  1  0
 23 26  1  0
 26 27  1  0
 26 28  1  0
 26 29  1  0
 29 30  1  0
 29 31  1  0
 29 32  1  0
M  END
$$$$

     RDKit          2D

 25 24  0  0  0  0  0  0  0  0999 V2000
   -2.5981    0.0000    0.0000 O   0  0  0  0  0  0  0  0  0  0  0  0
   -1.2990    0.7500    0.0000 C   0  0  0  0  0  0  0  0  0  0  0  0
    0.0000    0.0000    0.0000 C   0  0  0  0  0  0  0  0  0  0  0  0
    1.2990    0.7500    0.0000 C   0  0  0  0  0  0  0  0  0  0  0  0
    2.5981   -0.0000    0.0000 C   0  0  0  0  0  0  0  0  0  0  0  0
    3.3481    1.2990    0.0000 F   0  0  0  0  0  0  0  0  0  0  0  0
    1.8481   -1.2990    0.0000 F   0  0  0  0  0  0  0  0  0  0  0  0
    3.8971   -0.7500    0.0000 C   0  0  0  0  0  0  0  0  0  0  0  0
    3.1471   -2.0490    0.0000 F   0  0  0  0  0  0  0  0  0  0  0  0
    4.6471    0.5490    0.0000 F   0  0  0  0  0  0  0  0  0  0  0  0
    5.1962   -1.5000    0.0000 C   0  0  0  0  0  0  0  0  0  0  0  0
    5.9462   -0.2010    0.0000 F   0  0  0  0  0  0  0  0  0  0  0  0
    4.4462   -2.7990    0.0000 F   0  0  0  0  0  0  0  0  0  0  0  0
    6.4952   -2.2500    0.0000 C   0  0  0  0  0  0  0  0  0  0  0  0
    7.7942   -3.0000    0.0000 F   0  0  0  0  0  0  0  0  0  0  0  0
    5.7452   -3.5490    0.0000 F   0  0  0  0  0  0  0  0  0  0  0  0
    7.2452   -0.9510    0.0000 F   0  0  0  0  0  0  0  0  0  0  0  0
   -1.2990    2.2500    0.0000 S   0  0  0  0  0  0  0  0  0  0  0  0
   -2.5981    3.0000    0.0000 C   0  0  0  0  0  0  0  0  0  0  0  0
   -3.8971    2.2500    0.0000 O   0  0  0  0  0  0  0  0  0  0  0  0
   -2.5981    4.5000    0.0000 C   0  0  0  0  0  0  0  0  0  0  0  0
   -1.2990    5.2500    0.0000 O   0  0  0  0  0  0  0  0  0  0  0  0
   -3.8971    5.2500    0.0000 C   0  0  0  0  0  0  0  0  0  0  0  0
   -5.1962    4.5000    0.0000 O   0  0  0  0  0  0  0  0  0  0  0  0
   -3.8971    6.7500    0.0000 O   0  0  0  0  0  0  0  0  0  0  0  0
  1  2  2  0
  2  3  1  0
  3  4  1  0
  4  5  1  0
  5  6  1  0
  5  7  1  0
  5  8  1  0
  8  9  1  0
  8 10  1  0
  8 11  1  0
 11 12  1  0
 11 13  1  0
 11 14  1  0
 14 15  1  0
 14 16  1  0
 14 17  1  0
  2 18  1  0
 18 19  1  0
 19 20  2  0
 19 21  1  0
 21 22  1  0
 21 23  1  0
 23 24  2  0
 23 25  1  0
M  END
$$$$

     RDKit          2D

 31 30  0  0  0  0  0  0  0  0999 V2000
   -2.5981    0.0000    0.0000 O   0  0  0  0  0  0  0  0  0  0  0  0
   -1.2990    0.7500    0.0000 C   0  0  0  0  0  0  0  0  0  0  0  0
    0.0000    0.0000    0.0000 C   0  0  0  0  0  0  0  0  0  0  0  0
    1.2990    0.7500    0.0000 C   0  0  0  0  0  0  0  0  0  0  0  0
    2.5981   -0.0000    0.0000 C   0  0  0  0  0  0  0  0  0  0  0  0
    3.3481    1.2990    0.0000 F   0  0  0  0  0  0  0  0  0  0  0  0
    1.8481   -1.2990    0.0000 F   0  0  0  0  0  0  0  0  0  0  0  0
    3.8971   -0.7500    0.0000 C   0  0  0  0  0  0  0  0  0  0  0  0
    3.1471   -2.0490    0.0000 F   0  0  0  0  0  0  0  0  0  0  0  0
    4.6471    0.5490    0.0000 F   0  0  0  0  0  0  0  0  0  0  0  0
    5.1962   -1.5000    0.0000 C   0  0  0  0  0  0  0  0  0  0  0  0
    5.9462   -0.2010    0.0000 F   0  0  0  0  0  0  0  0  0  0  0  0
    4.4462   -2.7990    0.0000 F   0  0  0  0  0  0  0  0  0  0  0  0
    6.4952   -2.2500    0.0000 C   0  0  0  0  0  0  0  0  0  0  0  0
    5.7452   -3.5490    0.0000 F   0  0  0  0  0  0  0  0  0  0  0  0
    7.2452   -0.9510    0.0000 F   0  0  0  0  0  0  0  0  0  0  0  0
    7.7942   -3.0000    0.0000 C   0  0  0  0  0  0  0  0  0  0  0  0
    8.5442   -1.7010    0.0000 F   0  0  0  0  0  0  0  0  0  0  0  0
    7.0442   -4.2990    0.0000 F   0  0  0  0  0  0  0  0  0  0  0  0
    9.0933   -3.7500    0.0000 C   0  0  0  0  0  0  0  0  0  0  0  0
   10.3923   -4.5000    0.0000 F   0  0  0  0  0  0  0  0  0  0  0  0
    8.3433   -5.0490    0.0000 F   0  0  0  0  0  0  0  0  0  0  0  0
    9.8433   -2.4510    0.0000 F   0  0  0  0  0  0  0  0  0  0  0  0
   -1.2990    2.2500    0.0000 S   0  0  0  0  0  0  0  0  0  0  0  0
   -2.5981    3.0000    0.0000 C   0  0  0  0  0  0  0  0  0  0  0  0
   -3.8971    2.2500    0.0000 O   0  0  0  0  0  0  0  0  0  0  0  0
   -2.5981    4.5000    0.0000 C   0  0  0  0  0  0  0  0  0  0  0  0
   -1.2990    5.2500    0.0000 O   0  0  0  0  0  0  0  0  0  0  0  0
   -3.8971    5.2500    0.0000 C   0  0  0  0  0  0  0  0  0  0  0  0
   -5.1962    4.5000    0.0000 O   0  0  0  0  0  0  0  0  0  0  0  0
   -3.8971    6.7500    0.0000 O   0  0  0  0  0  0  0  0  0  0  0  0
  1  2  2  0
  2  3  1  0
  3  4  1  0
  4  5  1  0
  5  6  1  0
  5  7  1  0
  5  8  1  0
  8  9  1  0
  8 10  1  0
  8 11  1  0
 11 12  1  0
 11 13  1  0
 11 14  1  0
 14 15  1  0
 14 16  1  0
 14 17  1  0
 17 18  1  0
 17 19  1  0
 17 20  1  0
 20 21  1  0
 20 22  1  0
 20 23  1  0
  2 24  1  0
 24 25  1  0
 25 26  2  0
 25 27  1  0
 27 28  1  0
 27 29  1  0
 29 30  2  0
 29 31  1  0
M  END
$$$$

     RDKit          2D

 48 47  0  0  0  0  0  0  0  0999 V2000
   -2.5981    0.0000    0.0000 O   0  0  0  0  0  0  0  0  0  0  0  0
   -1.2990    0.7500    0.0000 C   0  0  0  0  0  0  0  0  0  0  0  0
    0.0000    0.0000    0.0000 C   0  0  0  0  0  0  0  0  0  0  0  0
    1.2990    0.7500    0.0000 C   0  0  0  0  0  0  0  0  0  0  0  0
    2.5981   -0.0000    0.0000 C   0  0  0  0  0  0  0  0  0  0  0  0
    3.3481    1.2990    0.0000 F   0  0  0  0  0  0  0  0  0  0  0  0
    1.8481   -1.2990    0.0000 F   0  0  0  0  0  0  0  0  0  0  0  0
    3.8971   -0.7500    0.0000 C   0  0  0  0  0  0  0  0  0  0  0  0
    3.1471   -2.0490    0.0000 F   0  0  0  0  0  0  0  0  0  0  0  0
    4.6471    0.5490    0.0000 F   0  0  0  0  0  0  0  0  0  0  0  0
    5.1962   -1.5000    0.0000 C   0  0  0  0  0  0  0  0  0  0  0  0
    5.9462   -0.2010    0.0000 F   0  0  0  0  0  0  0  0  0  0  0  0
    4.4462   -2.7990    0.0000 F   0  0  0  0  0  0  0  0  0  0  0  0
    6.4952   -2.2500    0.0000 C   0  0  0  0  0  0  0  0  0  0  0  0
    5.7452   -3.5490    0.0000 F   0  0  0  0  0  0  0  0  0  0  0  0
    7.2452   -0.9510    0.0000 F   0  0  0  0  0  0  0  0  0  0  0  0
    7.7942   -3.0000    0.0000 C   0  0  0  0  0  0  0  0  0  0  0  0
    8.5442   -1.7010    0.0000 F   0  0  0  0  0  0  0  0  0  0  0  0
    7.0442   -4.2990    0.0000 F   0  0  0  0  0  0  0  0  0  0  0  0
    9.0933   -3.7500    0.0000 C   0  0  0  0  0  0  0  0  0  0  0  0
    8.3433   -5.0490    0.0000 F   0  0  0  0  0  0  0  0  0  0  0  0
    9.8433   -2.4510    0.0000 F   0  0  0  0  0  0  0  0  0  0  0  0
   10.3923   -4.5000    0.0000 C   0  0  0  0  0  0  0  0  0  0  0  0
   11.1423   -3.2010    0.0000 F   0  0  0  0  0  0  0  0  0  0  0  0
    9.6423   -5.7990    0.0000 F   0  0  0  0  0  0  0  0  0  0  0  0
   11.6913   -5.2500    0.0000 C   0  0  0  0  0  0  0  0  0  0  0  0
   10.9413   -6.5490    0.0000 F   0  0  0  0  0  0  0  0  0  0  0  0
   12.4413   -3.9510    0.0000 F   0  0  0  0  0  0  0  0  0  0  0  0
   12.9904   -6.0000    0.0000 C   0  0  0  0  0  0  0  0  0  0  0  0
   13.7404   -4.7010    0.0000 F   0  0  0  0  0  0  0  0  0  0  0  0
   12.2404   -7.2990    0.0000 F   0  0  0  0  0  0  0  0  0  0  0  0
   14.2894   -6.7500    0.0000 C   0  0  0  0  0  0  0  0  0  0  0  0
   13.5394   -8.0490    0.0000 F   0  0  0  0  0  0  0  0  0  0  0  0
   15.0394   -5.4510    0.0000 F   0  0  0  0  0  0  0  0  0  0  0  0
   15.5885   -7.5000    0.0000 C   0  0  0  0  0  0  0  0  0  0  0  0
   16.3385   -6.2010    0.0000 F   0  0  0  0  0  0  0  0  0  0  0  0
   14.8385   -8.7990    0.0000 F   0  0  0  0  0  0  0  0  0  0  0  0
   16.8875   -8.2500    0.0000 C   0  0  0  0  0  0  0  0  0  0  0  0
   18.1865   -9.0000    0.0000 F   0  0  0  0  0  0  0  0  0  0  0  0
   16.1375   -9.5490    0.0000 F   0  0  0  0  0  0  0  0  0  0  0  0
   17.6375   -6.9510    0.0000 F   0  0  0  0  0  0  0  0  0  0  0  0
   -1.2990    2.2500    0.0000 S   0  0  0  0  0  0  0  0  0  0  0  0
   -2.5981    3.0000    0.0000 C   0  0  0  0  0  0  0  0  0  0  0  0
   -2.5981    4.5000    0.0000 C   0  0  0  0  0  0  0  0  0  0  0  0
   -1.2990    5.2500    0.0000 O   0  0  0  0  0  0  0  0  0  0  0  0
   -3.8971    5.2500    0.0000 C   0  0  0  0  0  0  0  0  0  0  0  0
   -5.1962    4.5000    0.0000 O   0  0  0  0  0  0  0  0  0  0  0  0
   -3.8971    6.7500    0.0000 O   0  0  0  0  0  0  0  0  0  0  0  0
  1  2  2  0
  2  3  1  0
  3  4  1  0
  4  5  1  0
  5  6  1  0
  5  7  1  0
  5  8  1  0
  8  9  1  0
  8 10  1  0
  8 11  1  0
 11 12  1  0
 11 13  1  0
 11 14  1  0
 14 15  1  0
 14 16  1  0
 14 17  1  0
 17 18  1  0
 17 19  1  0
 17 20  1  0
 20 21  1  0
 20 22  1  0
 20 23  1  0
 23 24  1  0
 23 25  1  0
 23 26  1  0
 26 27  1  0
 26 28  1  0
 26 29  1  0
 29 30  1  0
 29 31  1  0
 29 32  1  0
 32 33  1  0
 32 34  1  0
 32 35  1  0
 35 36  1  0
 35 37  1  0
 35 38  1  0
 38 39  1  0
 38 40  1  0
 38 41  1  0
  2 42  1  0
 42 43  1  0
 43 44  1  0
 44 45  1  0
 44 46  1  0
 46 47  2  0
 46 48  1  0
M  END
$$$$

     RDKit          2D

 24 23  0  0  0  0  0  0  0  0999 V2000
    0.0000    0.0000    0.0000 C   0  0  0  0  0  0  0  0  0  0  0  0
    1.2990    0.7500    0.0000 C   0  0  0  0  0  0  0  0  0  0  0  0
    1.2990    2.2500    0.0000 O   0  0  0  0  0  0  0  0  0  0  0  0
    2.5981   -0.0000    0.0000 O   0  0  0  0  0  0  0  0  0  0  0  0
    3.8971    0.7500    0.0000 C   0  0  0  0  0  0  0  0  0  0  0  0
    5.1962   -0.0000    0.0000 C   0  0  0  0  0  0  0  0  0  0  0  0
    6.4952    0.7500    0.0000 C   0  0  0  0  0  0  0  0  0  0  0  0
    7.7942   -0.0000    0.0000 O   0  0  0  0  0  0  0  0  0  0  0  0
    5.1962   -1.5000    0.0000 C   0  0  0  0  0  0  0  0  0  0  0  0
    6.6962   -1.5000    0.0000 F   0  0  0  0  0  0  0  0  0  0  0  0
    3.6962   -1.5000    0.0000 F   0  0  0  0  0  0  0  0  0  0  0  0
    5.1962   -3.0000    0.0000 C   0  0  0  0  0  0  0  0  0  0  0  0
    5.1962   -4.5000    0.0000 F   0  0  0  0  0  0  0  0  0  0  0  0
    3.6962   -3.0000    0.0000 F   0  0  0  0  0  0  0  0  0  0  0  0
    6.6962   -3.0000    0.0000 F   0  0  0  0  0  0  0  0  0  0  0  0
    3.8971    2.2500    0.0000 C   0  0  0  0  0  0  0  0  0  0  0  0
    2.5981    3.0000    0.0000 O   0  0  0  0  0  0  0  0  0  0  0  0
    5.1962    3.0000    0.0000 N   0  0  0  0  0  0  0  0  0  0  0  0
    4.4462    4.2990    0.0000 C   0  0  0  0  0  0  0  0  0  0  0  0
    5.9462    1.7010    0.0000 C   0  0  0  0  0  0  0  0  0  0  0  0
    6.4952    3.7500    0.0000 C   0  0  0  0  0  0  0  0  0  0  0  0
    7.7942    3.0000    0.0000 C   0  0  0  0  0  0  0  0  0  0  0  0
    7.7942    1.5000    0.0000 O   0  0  0  0  0  0  0  0  0  0  0  0
    9.0933    3.7500    0.0000 O   0  0  0  0  0  0  0  0  0  0  0  0
  1  2  1  0
  2  3  2  0
  2  4  1  0
  4  5  1  0
  5  6  1  0
  6  7  1  0
  7  8  1  0
  6  9  1  0
  9 10  1  0
  9 11  1  0
  9 12  1  0
 12 13  1  0
 12 14  1  0
 12 15  1  0
  5 16  1  0
 16 17  1  0
 16 18  1  0
 18 19  1  0
 18 20  1  0
 18 21  1  0
 21 22  1  0
 22 23  2  0
 22 24  1  0
M  CHG  2  18   1  24  -1
M  END
$$$$

     RDKit          2D

 25 24  0  0  0  0  0  0  0  0999 V2000
    0.0000    0.0000    0.0000 C   0  0  0  0  0  0  0  0  0  0  0  0
    1.2990    0.7500    0.0000 N   0  0  0  0  0  0  0  0  0  0  0  0
    2.5981   -0.0000    0.0000 C   0  0  0  0  0  0  0  0  0  0  0  0
    1.2990    2.2500    0.0000 C   0  0  0  0  0  0  0  0  0  0  0  0
    2.5981    3.0000    0.0000 C   0  0  0  0  0  0  0  0  0  0  0  0
    3.8971    2.2500    0.0000 O   0  0  0  0  0  0  0  0  0  0  0  0
    5.1962    3.0000    0.0000 C   0  0  0  0  0  0  0  0  0  0  0  0
    6.4952    2.2500    0.0000 O   0  0  0  0  0  0  0  0  0  0  0  0
    2.5981    4.5000    0.0000 C   0  0  0  0  0  0  0  0  0  0  0  0
    1.2990    5.2500    0.0000 O   0  0  0  0  0  0  0  0  0  0  0  0
    1.2990    6.7500    0.0000 C   0  0  0  0  0  0  0  0  0  0  0  0
    0.0000    7.5000    0.0000 O   0  0  0  0  0  0  0  0  0  0  0  0
    3.8971    5.2500    0.0000 C   0  0  0  0  0  0  0  0  0  0  0  0
    3.1471    6.5490    0.0000 F   0  0  0  0  0  0  0  0  0  0  0  0
    4.6471    3.9510    0.0000 F   0  0  0  0  0  0  0  0  0  0  0  0
    5.1962    6.0000    0.0000 C   0  0  0  0  0  0  0  0  0  0  0  0
    5.9462    4.7010    0.0000 F   0  0  0  0  0  0  0  0  0  0  0  0
    4.4462    7.2990    0.0000 F   0  0  0  0  0  0  0  0  0  0  0  0
    6.4952    6.7500    0.0000 C   0  0  0  0  0  0  0  0  0  0  0  0
    5.7452    8.0490    0.0000 F   0  0  0  0  0  0  0  0  0  0  0  0
    7.2452    5.4510    0.0000 F   0  0  0  0  0  0  0  0  0  0  0  0
    7.7942    7.5000    0.0000 C   0  0  0  0  0  0  0  0  0  0  0  0
    9.0933    8.2500    0.0000 F   0  0  0  0  0  0  0  0  0  0  0  0
    8.5442    6.2010    0.0000 F   0  0  0  0  0  0  0  0  0  0  0  0
    7.0442    8.7990    0.0000 F   0  0  0  0  0  0  0  0  0  0  0  0
  1  2  1  0
  2  3  1  0
  2  4  1  0
  4  5  1  0
  5  6  1  0
  6  7  1  0
  7  8  1  0
  5  9  1  0
  9 10  1  0
 10 11  1  0
 11 12  2  0
  9 13  1  0
 13 14  1  0
 13 15  1  0
 13 16  1  0
 16 17  1  0
 16 18  1  0
 16 19  1  0
 19 20  1  0
 19 21  1  0
 19 22  1  0
 22 23  1  0
 22 24  1  0
 22 25  1  0
M  END
$$$$

     RDKit          2D

 44 43  0  0  0  0  0  0  0  0999 V2000
    0.0000    0.0000    0.0000 C   0  0  0  0  0  0  0  0  0  0  0  0
    1.2990    0.7500    0.0000 N   0  0  0  0  0  0  0  0  0  0  0  0
    2.5981   -0.0000    0.0000 C   0  0  0  0  0  0  0  0  0  0  0  0
    1.2990    2.2500    0.0000 C   0  0  0  0  0  0  0  0  0  0  0  0
    2.5981    3.0000    0.0000 C   0  0  0  0  0  0  0  0  0  0  0  0
    3.8971    2.2500    0.0000 O   0  0  0  0  0  0  0  0  0  0  0  0
    2.5981    4.5000    0.0000 C   0  0  0  0  0  0  0  0  0  0  0  0
    3.8971    5.2500    0.0000 C   0  0  0  0  0  0  0  0  0  0  0  0
    3.1471    6.5490    0.0000 F   0  0  0  0  0  0  0  0  0  0  0  0
    4.6471    3.9510    0.0000 F   0  0  0  0  0  0  0  0  0  0  0  0
    5.1962    6.0000    0.0000 C   0  0  0  0  0  0  0  0  0  0  0  0
    5.9462    4.7010    0.0000 F   0  0  0  0  0  0  0  0  0  0  0  0
    4.4462    7.2990    0.0000 F   0  0  0  0  0  0  0  0  0  0  0  0
    6.4952    6.7500    0.0000 C   0  0  0  0  0  0  0  0  0  0  0  0
    5.7452    8.0490    0.0000 F   0  0  0  0  0  0  0  0  0  0  0  0
    7.2452    5.4510    0.0000 F   0  0  0  0  0  0  0  0  0  0  0  0
    7.7942    7.5000    0.0000 C   0  0  0  0  0  0  0  0  0  0  0  0
    8.5442    6.2010    0.0000 F   0  0  0  0  0  0  0  0  0  0  0  0
    7.0442    8.7990    0.0000 F   0  0  0  0  0  0  0  0  0  0  0  0
    9.0933    8.2500    0.0000 C   0  0  0  0  0  0  0  0  0  0  0  0
    8.3433    9.5490    0.0000 F   0  0  0  0  0  0  0  0  0  0  0  0
    9.8433    6.9510    0.0000 F   0  0  0  0  0  0  0  0  0  0  0  0
   10.3923    9.0000    0.0000 C   0  0  0  0  0  0  0  0  0  0  0  0
   11.1423    7.7010    0.0000 F   0  0  0  0  0  0  0  0  0  0  0  0
    9.6423   10.2990    0.0000 F   0  0  0  0  0  0  0  0  0  0  0  0
   11.6913    9.7500    0.0000 C   0  0  0  0  0  0  0  0  0  0  0  0
   10.9413   11.0490    0.0000 F   0  0  0  0  0  0  0  0  0  0  0  0
   12.4413    8.4510    0.0000 F   0  0  0  0  0  0  0  0  0  0  0  0
   12.9904   10.5000    0.0000 C   0  0  0  0  0  0  0  0  0  0  0  0
   13.7404    9.2010    0.0000 F   0  0  0  0  0  0  0  0  0  0  0  0
   12.2404   11.7990    0.0000 F   0  0  0  0  0  0  0  0  0  0  0  0
   14.2894   11.2500    0.0000 C   0  0  0  0  0  0  0  0  0  0  0  0
   13.5394   12.5490    0.0000 F   0  0  0  0  0  0  0  0  0  0  0  0
   15.0394    9.9510    0.0000 F   0  0  0  0  0  0  0  0  0  0  0  0
   15.5885   12.0000    0.0000 C   0  0  0  0  0  0  0  0  0  0  0  0
   16.3385   10.7010    0.0000 F   0  0  0  0  0  0  0  0  0  0  0  0
   14.8385   13.2990    0.0000 F   0  0  0  0  0  0  0  0  0  0  0  0
   16.8875   12.7500    0.0000 C   0  0  0  0  0  0  0  0  0  0  0  0
   16.1375   14.0490    0.0000 F   0  0  0  0  0  0  0  0  0  0  0  0
   17.6375   11.4510    0.0000 F   0  0  0  0  0  0  0  0  0  0  0  0
   18.1865   13.5000    0.0000 C   0  0  0  0  0  0  0  0  0  0  0  0
   19.4856   14.2500    0.0000 F   0  0  0  0  0  0  0  0  0  0  0  0
   18.9365   12.2010    0.0000 F   0  0  0  0  0  0  0  0  0  0  0  0
   17.4365   14.7990    0.0000 F   0  0  0  0  0  0  0  0  0  0  0  0
  1  2  1  0
  2  3  1  0
  2  4  1  0
  4  5  1  0
  5  6  1  0
  5  7  1  0
  7  8  1  0
  8  9  1  0
  8 10  1  0
  8 11  1  0
 11 12  1  0
 11 13  1  0
 11 14  1  0
 14 15  1  0
 14 16  1  0
 14 17  1  0
 17 18  1  0
 17 19  1  0
 17 20  1  0
 20 21  1  0
 20 22  1  0
 20 23  1  0
 23 24  1  0
 23 25  1  0
 23 26  1  0
 26 27  1  0
 26 28  1  0
 26 29  1  0
 29 30  1  0
 29 31  1  0
 29 32  1  0
 32 33  1  0
 32 34  1  0
 32 35  1  0
 35 36  1  0
 35 37  1  0
 35 38  1  0
 38 39  1  0
 38 40  1  0
 38 41  1  0
 41 42  1  0
 41 43  1  0
 41 44  1  0
M  END
$$$$

     RDKit          2D

 33 32  0  0  0  0  0  0  0  0999 V2000
    0.0000    0.0000    0.0000 C   0  0  0  0  0  0  0  0  0  0  0  0
    1.2990    0.7500    0.0000 N   0  0  0  0  0  0  0  0  0  0  0  0
    2.5981    1.5000    0.0000 C   0  0  0  0  0  0  0  0  0  0  0  0
    2.0490   -0.5490    0.0000 C   0  0  0  0  0  0  0  0  0  0  0  0
    0.5490    2.0490    0.0000 C   0  0  0  0  0  0  0  0  0  0  0  0
    1.2990    3.3481    0.0000 C   0  0  0  0  0  0  0  0  0  0  0  0
    2.7990    3.3481    0.0000 O   0  0  0  0  0  0  0  0  0  0  0  0
    0.5490    4.6471    0.0000 C   0  0  0  0  0  0  0  0  0  0  0  0
    1.2990    5.9462    0.0000 C   0  0  0  0  0  0  0  0  0  0  0  0
    0.0000    6.6962    0.0000 F   0  0  0  0  0  0  0  0  0  0  0  0
    2.5981    5.1962    0.0000 F   0  0  0  0  0  0  0  0  0  0  0  0
    2.0490    7.2452    0.0000 C   0  0  0  0  0  0  0  0  0  0  0  0
    3.3481    6.4952    0.0000 F   0  0  0  0  0  0  0  0  0  0  0  0
    0.7500    7.9952    0.0000 F   0  0  0  0  0  0  0  0  0  0  0  0
    2.7990    8.5442    0.0000 C   0  0  0  0  0  0  0  0  0  0  0  0
    1.5000    9.2942    0.0000 F   0  0  0  0  0  0  0  0  0  0  0  0
    4.0981    7.7942    0.0000 F   0  0  0  0  0  0  0  0  0  0  0  0
    3.5490    9.8433    0.0000 C   0  0  0  0  0  0  0  0  0  0  0  0
    4.8481    9.0933    0.0000 F   0  0  0  0  0  0  0  0  0  0  0  0
    2.2500   10.5933    0.0000 F   0  0  0  0  0  0  0  0  0  0  0  0
    4.2990   11.1423    0.0000 C   0  0  0  0  0  0  0  0  0  0  0  0
    3.0000   11.8923    0.0000 F   0  0  0  0  0  0  0  0  0  0  0  0
    5.5981   10.3923    0.0000 F   0  0  0  0  0  0  0  0  0  0  0  0
    5.0490   12.4413    0.0000 C   0  0  0  0  0  0  0  0  0  0  0  0
    6.3481   11.6913    0.0000 F   0  0  0  0  0  0  0  0  0  0  0  0
    3.7500   13.1913    0.0000 F   0  0  0  0  0  0  0  0  0  0  0  0
    5.7990   13.7404    0.0000 C   0  0  0  0  0  0  0  0  0  0  0  0
    4.5000   14.4904    0.0000 F   0  0  0  0  0  0  0  0  0  0  0  0
    7.0981   12.9904    0.0000 F   0  0  0  0  0  0  0  0  0  0  0  0
    6.5490   15.0394    0.0000 C   0  0  0  0  0  0  0  0  0  0  0  0
    7.2990   16.3385    0.0000 F   0  0  0  0  0  0  0  0  0  0  0  0
    7.8481   14.2894    0.0000 F   0  0  0  0  0  0  0  0  0  0  0  0
    5.2500   15.7894    0.0000 F   0  0  0  0  0  0  0  0  0  0  0  0
  1  2  1  0
  2  3  1  0
  2  4  1  0
  2  5  1  0
  5  6  1  0
  6  7  1  0
  6  8  1  0
  8  9  1  0
  9 10  1  0
  9 11  1  0
  9 12  1  0
 12 13  1  0
 12 14  1  0
 12 15  1  0
 15 16  1  0
 15 17  1  0
 15 18  1  0
 18 19  1  0
 18 20  1  0
 18 21  1  0
 21 22  1  0
 21 23  1  0
 21 24  1  0
 24 25  1  0
 24 26  1  0
 24 27  1  0
 27 28  1  0
 27 29  1  0
 27 30  1  0
 30 31  1  0
 30 32  1  0
 30 33  1  0
M  CHG  1   2   1
M  END
$$$$

     RDKit          2D

 45 44  0  0  0  0  0  0  0  0999 V2000
    0.0000    0.0000    0.0000 C   0  0  0  0  0  0  0  0  0  0  0  0
    1.2990    0.7500    0.0000 N   0  0  0  0  0  0  0  0  0  0  0  0
    2.5981    1.5000    0.0000 C   0  0  0  0  0  0  0  0  0  0  0  0
    2.0490   -0.5490    0.0000 C   0  0  0  0  0  0  0  0  0  0  0  0
    0.5490    2.0490    0.0000 C   0  0  0  0  0  0  0  0  0  0  0  0
    1.2990    3.3481    0.0000 C   0  0  0  0  0  0  0  0  0  0  0  0
    2.7990    3.3481    0.0000 O   0  0  0  0  0  0  0  0  0  0  0  0
    0.5490    4.6471    0.0000 C   0  0  0  0  0  0  0  0  0  0  0  0
    1.2990    5.9462    0.0000 C   0  0  0  0  0  0  0  0  0  0  0  0
    0.0000    6.6962    0.0000 F   0  0  0  0  0  0  0  0  0  0  0  0
    2.5981    5.1962    0.0000 F   0  0  0  0  0  0  0  0  0  0  0  0
    2.0490    7.2452    0.0000 C   0  0  0  0  0  0  0  0  0  0  0  0
    3.3481    6.4952    0.0000 F   0  0  0  0  0  0  0  0  0  0  0  0
    0.7500    7.9952    0.0000 F   0  0  0  0  0  0  0  0  0  0  0  0
    2.7990    8.5442    0.0000 C   0  0  0  0  0  0  0  0  0  0  0  0
    1.5000    9.2942    0.0000 F   0  0  0  0  0  0  0  0  0  0  0  0
    4.0981    7.7942    0.0000 F   0  0  0  0  0  0  0  0  0  0  0  0
    3.5490    9.8433    0.0000 C   0  0  0  0  0  0  0  0  0  0  0  0
    4.8481    9.0933    0.0000 F   0  0  0  0  0  0  0  0  0  0  0  0
    2.2500   10.5933    0.0000 F   0  0  0  0  0  0  0  0  0  0  0  0
    4.2990   11.1423    0.0000 C   0  0  0  0  0  0  0  0  0  0  0  0
    3.0000   11.8923    0.0000 F   0  0  0  0  0  0  0  0  0  0  0  0
    5.5981   10.3923    0.0000 F   0  0  0  0  0  0  0  0  0  0  0  0
    5.0490   12.4413    0.0000 C   0  0  0  0  0  0  0  0  0  0  0  0
    6.3481   11.6913    0.0000 F   0  0  0  0  0  0  0  0  0  0  0  0
    3.7500   13.1913    0.0000 F   0  0  0  0  0  0  0  0  0  0  0  0
    5.7990   13.7404    0.0000 C   0  0  0  0  0  0  0  0  0  0  0  0
    4.5000   14.4904    0.0000 F   0  0  0  0  0  0  0  0  0  0  0  0
    7.0981   12.9904    0.0000 F   0  0  0  0  0  0  0  0  0  0  0  0
    6.5490   15.0394    0.0000 C   0  0  0  0  0  0  0  0  0  0  0  0
    7.8481   14.2894    0.0000 F   0  0  0  0  0  0  0  0  0  0  0  0
    5.2500   15.7894    0.0000 F   0  0  0  0  0  0  0  0  0  0  0  0
    7.2990   16.3385    0.0000 C   0  0  0  0  0  0  0  0  0  0  0  0
    6.0000   17.0885    0.0000 F   0  0  0  0  0  0  0  0  0  0  0  0
    8.5981   15.5885    0.0000 F   0  0  0  0  0  0  0  0  0  0  0  0
    8.0490   17.6375    0.0000 C   0  0  0  0  0  0  0  0  0  0  0  0
    9.3481   16.8875    0.0000 F   0  0  0  0  0  0  0  0  0  0  0  0
    6.7500   18.3875    0.0000 F   0  0  0  0  0  0  0  0  0  0  0  0
    8.7990   18.9365    0.0000 C   0  0  0  0  0  0  0  0  0  0  0  0
    7.5000   19.6865    0.0000 F   0  0  0  0  0  0  0  0  0  0  0  0
   10.0981   18.1865    0.0000 F   0  0  0  0  0  0  0  0  0  0  0  0
    9.5490   20.2356    0.0000 C   0  0  0  0  0  0  0  0  0  0  0  0
   10.2990   21.5346    0.0000 F   0  0  0  0  0  0  0  0  0  0  0  0
   10.8481   19.4856    0.0000 F   0  0  0  0  0  0  0  0  0  0  0  0
    8.2500   20.9856    0.0000 F   0  0  0  0  0  0  0  0  0  0  0  0
  1  2  1  0
  2  3  1  0
  2  4  1  0
  2  5  1  0
  5  6  1  0
  6  7  1  0
  6  8  1  0
  8  9  1  0
  9 10  1  0
  9 11  1  0
  9 12  1  0
 12 13  1  0
 12 14  1  0
 12 15  1  0
 15 16  1  0
 15 17  1  0
 15 18  1  0
 18 19  1  0
 18 20  1  0
 18 21  1  0
 21 22  1  0
 21 23  1  0
 21 24  1  0
 24 25  1  0
 24 26  1  0
 24 27  1  0
 27 28  1  0
 27 29  1  0
 27 30  1  0
 30 31  1  0
 30 32  1  0
 30 33  1  0
 33 34  1  0
 33 35  1  0
 33 36  1  0
 36 37  1  0
 36 38  1  0
 36 39  1  0
 39 40  1  0
 39 41  1  0
 39 42  1  0
 42 43  1  0
 42 44  1  0
 42 45  1  0
M  CHG  1   2   1
M  END
$$$$

     RDKit          2D

 37 36  0  0  0  0  0  0  0  0999 V2000
    0.0000    0.0000    0.0000 C   0  0  0  0  0  0  0  0  0  0  0  0
    1.2990    0.7500    0.0000 N   0  0  0  0  0  0  0  0  0  0  0  0
    2.5981    1.5000    0.0000 C   0  0  0  0  0  0  0  0  0  0  0  0
    2.0490   -0.5490    0.0000 C   0  0  0  0  0  0  0  0  0  0  0  0
    3.5490   -0.5490    0.0000 C   0  0  0  0  0  0  0  0  0  0  0  0
    4.2990   -1.8481    0.0000 C   0  0  0  0  0  0  0  0  0  0  0  0
    3.5490   -3.1471    0.0000 O   0  0  0  0  0  0  0  0  0  0  0  0
    5.7990   -1.8481    0.0000 O   0  0  0  0  0  0  0  0  0  0  0  0
    0.5490    2.0490    0.0000 C   0  0  0  0  0  0  0  0  0  0  0  0
    1.2990    3.3481    0.0000 C   0  0  0  0  0  0  0  0  0  0  0  0
    2.7990    3.3481    0.0000 O   0  0  0  0  0  0  0  0  0  0  0  0
    0.5490    4.6471    0.0000 C   0  0  0  0  0  0  0  0  0  0  0  0
    1.2990    5.9462    0.0000 C   0  0  0  0  0  0  0  0  0  0  0  0
    0.0000    6.6962    0.0000 F   0  0  0  0  0  0  0  0  0  0  0  0
    2.5981    5.1962    0.0000 F   0  0  0  0  0  0  0  0  0  0  0  0
    2.0490    7.2452    0.0000 C   0  0  0  0  0  0  0  0  0  0  0  0
    3.3481    6.4952    0.0000 F   0  0  0  0  0  0  0  0  0  0  0  0
    0.7500    7.9952    0.0000 F   0  0  0  0  0  0  0  0  0  0  0  0
    2.7990    8.5442    0.0000 C   0  0  0  0  0  0  0  0  0  0  0  0
    1.5000    9.2942    0.0000 F   0  0  0  0  0  0  0  0  0  0  0  0
    4.0981    7.7942    0.0000 F   0  0  0  0  0  0  0  0  0  0  0  0
    3.5490    9.8433    0.0000 C   0  0  0  0  0  0  0  0  0  0  0  0
    4.8481    9.0933    0.0000 F   0  0  0  0  0  0  0  0  0  0  0  0
    2.2500   10.5933    0.0000 F   0  0  0  0  0  0  0  0  0  0  0  0
    4.2990   11.1423    0.0000 C   0  0  0  0  0  0  0  0  0  0  0  0
    3.0000   11.8923    0.0000 F   0  0  0  0  0  0  0  0  0  0  0  0
    5.5981   10.3923    0.0000 F   0  0  0  0  0  0  0  0  0  0  0  0
    5.0490   12.4413    0.0000 C   0  0  0  0  0  0  0  0  0  0  0  0
    6.3481   11.6913    0.0000 F   0  0  0  0  0  0  0  0  0  0  0  0
    3.7500   13.1913    0.0000 F   0  0  0  0  0  0  0  0  0  0  0  0
    5.7990   13.7404    0.0000 C   0  0  0  0  0  0  0  0  0  0  0  0
    4.5000   14.4904    0.0000 F   0  0  0  0  0  0  0  0  0  0  0  0
    7.0981   12.9904    0.0000 F   0  0  0  0  0  0  0  0  0  0  0  0
    6.5490   15.0394    0.0000 C   0  0  0  0  0  0  0  0  0  0  0  0
    7.2990   16.3385    0.0000 F   0  0  0  0  0  0  0  0  0  0  0  0
    7.8481   14.2894    0.0000 F   0  0  0  0  0  0  0  0  0  0  0  0
    5.2500   15.7894    0.0000 F   0  0  0  0  0  0  0  0  0  0  0  0
  1  2  1  0
  2  3  1  0
  2  4  1  0
  4  5  1  0
  5  6  1  0
  6  7  2  0
  6  8  1  0
  2  9  1  0
  9 10  1  0
 10 11  1  0
 10 12  1  0
 12 13  1  0
 13 14  1  0
 13 15  1  0
 13 16  1  0
 16 17  1  0
 16 18  1  0
 16 19  1  0
 19 20  1  0
 19 21  1  0
 19 22  1  0
 22 23  1  0
 22 24  1  0
 22 25  1  0
 25 26  1  0
 25 27  1  0
 25 28  1  0
 28 29  1  0
 28 30  1  0
 28 31  1  0
 31 32  1  0
 31 33  1  0
 31 34  1  0
 34 35  1  0
 34 36  1  0
 34 37  1  0
M  CHG  1   2   1
M  END
$$$$

     RDKit          2D

 24 23  0  0  0  0  0  0  0  0999 V2000
    0.0000    0.0000    0.0000 C   0  0  0  0  0  0  0  0  0  0  0  0
    1.2990    0.7500    0.0000 N   0  0  0  0  0  0  0  0  0  0  0  0
    2.5981    1.5000    0.0000 C   0  0  0  0  0  0  0  0  0  0  0  0
    0.5490    2.0490    0.0000 C   0  0  0  0  0  0  0  0  0  0  0  0
    1.2990    3.3481    0.0000 C   0  0  0  0  0  0  0  0  0  0  0  0
    2.7990    3.3481    0.0000 O   0  0  0  0  0  0  0  0  0  0  0  0
    0.5490    4.6471    0.0000 O   0  0  0  0  0  0  0  0  0  0  0  0
    2.0490   -0.5490    0.0000 C   0  0  0  0  0  0  0  0  0  0  0  0
    3.5490   -0.5490    0.0000 C   0  0  0  0  0  0  0  0  0  0  0  0
    4.2990    0.7500    0.0000 O   0  0  0  0  0  0  0  0  0  0  0  0
    4.2990   -1.8481    0.0000 C   0  0  0  0  0  0  0  0  0  0  0  0
    5.7990   -1.8481    0.0000 C   0  0  0  0  0  0  0  0  0  0  0  0
    5.7990   -3.3481    0.0000 F   0  0  0  0  0  0  0  0  0  0  0  0
    5.7990   -0.3481    0.0000 F   0  0  0  0  0  0  0  0  0  0  0  0
    7.2990   -1.8481    0.0000 C   0  0  0  0  0  0  0  0  0  0  0  0
    7.2990   -0.3481    0.0000 F   0  0  0  0  0  0  0  0  0  0  0  0
    7.2990   -3.3481    0.0000 F   0  0  0  0  0  0  0  0  0  0  0  0
    8.7990   -1.8481    0.0000 C   0  0  0  0  0  0  0  0  0  0  0  0
    8.7990   -3.3481    0.0000 F   0  0  0  0  0  0  0  0  0  0  0  0
    8.7990   -0.3481    0.0000 F   0  0  0  0  0  0  0  0  0  0  0  0
   10.2990   -1.8481    0.0000 C   0  0  0  0  0  0  0  0  0  0  0  0
   11.7990   -1.8481    0.0000 F   0  0  0  0  0  0  0  0  0  0  0  0
   10.2990   -0.3481    0.0000 F   0  0  0  0  0  0  0  0  0  0  0  0
   10.2990   -3.3481    0.0000 F   0  0  0  0  0  0  0  0  0  0  0  0
  1  2  1  0
  2  3  1  0
  2  4  1  0
  4  5  1  0
  5  6  2  0
  5  7  1  0
  2  8  1  0
  8  9  1  0
  9 10  1  0
  9 11  1  0
 11 12  1  0
 12 13  1  0
 12 14  1  0
 12 15  1  0
 15 16  1  0
 15 17  1  0
 15 18  1  0
 18 19  1  0
 18 20  1  0
 18 21  1  0
 21 22  1  0
 21 23  1  0
 21 24  1  0
M  CHG  2   2   1   7  -1
M  END
$$$$

     RDKit          2D

 37 36  0  0  0  0  0  0  0  0999 V2000
    0.0000    0.0000    0.0000 C   0  0  0  0  0  0  0  0  0  0  0  0
    1.2990    0.7500    0.0000 N   0  0  0  0  0  0  0  0  0  0  0  0
    2.5981   -0.0000    0.0000 C   0  0  0  0  0  0  0  0  0  0  0  0
    1.2990    2.2500    0.0000 C   0  0  0  0  0  0  0  0  0  0  0  0
    2.5981    3.0000    0.0000 C   0  0  0  0  0  0  0  0  0  0  0  0
    3.8971    2.2500    0.0000 O   0  0  0  0  0  0  0  0  0  0  0  0
    2.5981    4.5000    0.0000 C   0  0  0  0  0  0  0  0  0  0  0  0
    3.8971    5.2500    0.0000 C   0  0  0  0  0  0  0  0  0  0  0  0
    5.1962    4.5000    0.0000 F   0  0  0  0  0  0  0  0  0  0  0  0
    3.8971    6.7500    0.0000 C   0  0  0  0  0  0  0  0  0  0  0  0
    5.3971    6.7500    0.0000 F   0  0  0  0  0  0  0  0  0  0  0  0
    2.3971    6.7500    0.0000 F   0  0  0  0  0  0  0  0  0  0  0  0
    3.8971    8.2500    0.0000 C   0  0  0  0  0  0  0  0  0  0  0  0
    2.3971    8.2500    0.0000 F   0  0  0  0  0  0  0  0  0  0  0  0
    5.3971    8.2500    0.0000 F   0  0  0  0  0  0  0  0  0  0  0  0
    3.8971    9.7500    0.0000 C   0  0  0  0  0  0  0  0  0  0  0  0
    5.3971    9.7500    0.0000 F   0  0  0  0  0  0  0  0  0  0  0  0
    2.3971    9.7500    0.0000 F   0  0  0  0  0  0  0  0  0  0  0  0
    3.8971   11.2500    0.0000 C   0  0  0  0  0  0  0  0  0  0  0  0
    2.3971   11.2500    0.0000 F   0  0  0  0  0  0  0  0  0  0  0  0
    5.3971   11.2500    0.0000 F   0  0  0  0  0  0  0  0  0  0  0  0
    3.8971   12.7500    0.0000 C   0  0  0  0  0  0  0  0  0  0  0  0
    5.3971   12.7500    0.0000 F   0  0  0  0  0  0  0  0  0  0  0  0
    2.3971   12.7500    0.0000 F   0  0  0  0  0  0  0  0  0  0  0  0
    3.8971   14.2500    0.0000 C   0  0  0  0  0  0  0  0  0  0  0  0
    2.3971   14.2500    0.0000 F   0  0  0  0  0  0  0  0  0  0  0  0
    5.3971   14.2500    0.0000 F   0  0  0  0  0  0  0  0  0  0  0  0
    3.8971   15.7500    0.0000 C   0  0  0  0  0  0  0  0  0  0  0  0
    5.3971   15.7500    0.0000 F   0  0  0  0  0  0  0  0  0  0  0  0
    2.3971   15.7500    0.0000 F   0  0  0  0  0  0  0  0  0  0  0  0
    3.8971   17.2500    0.0000 C   0  0  0  0  0  0  0  0  0  0  0  0
    2.3971   17.2500    0.0000 F   0  0  0  0  0  0  0  0  0  0  0  0
    5.3971   17.2500    0.0000 F   0  0  0  0  0  0  0  0  0  0  0  0
    3.8971   18.7500    0.0000 C   0  0  0  0  0  0  0  0  0  0  0  0
    3.8971   20.2500    0.0000 F   0  0  0  0  0  0  0  0  0  0  0  0
    5.3971   18.7500    0.0000 F   0  0  0  0  0  0  0  0  0  0  0  0
    2.3971   18.7500    0.0000 F   0  0  0  0  0  0  0  0  0  0  0  0
  1  2  1  0
  2  3  1  0
  2  4  1  0
  4  5  1  0
  5  6  1  0
  5  7  1  0
  7  8  2  3
  8  9  1  0
  8 10  1  0
 10 11  1  0
 10 12  1  0
 10 13  1  0
 13 14  1  0
 13 15  1  0
 13 16  1  0
 16 17  1  0
 16 18  1  0
 16 19  1  0
 19 20  1  0
 19 21  1  0
 19 22  1  0
 22 23  1  0
 22 24  1  0
 22 25  1  0
 25 26  1  0
 25 27  1  0
 25 28  1  0
 28 29  1  0
 28 30  1  0
 28 31  1  0
 31 32  1  0
 31 33  1  0
 31 34  1  0
 34 35  1  0
 34 36  1  0
 34 37  1  0
M  END
$$$$

     RDKit          2D

 49 48  0  0  0  0  0  0  0  0999 V2000
    0.0000    0.0000    0.0000 C   0  0  0  0  0  0  0  0  0  0  0  0
    1.2990    0.7500    0.0000 N   0  0  0  0  0  0  0  0  0  0  0  0
    2.5981   -0.0000    0.0000 C   0  0  0  0  0  0  0  0  0  0  0  0
    1.2990    2.2500    0.0000 C   0  0  0  0  0  0  0  0  0  0  0  0
    2.5981    3.0000    0.0000 C   0  0  0  0  0  0  0  0  0  0  0  0
    3.8971    2.2500    0.0000 O   0  0  0  0  0  0  0  0  0  0  0  0
    2.5981    4.5000    0.0000 C   0  0  0  0  0  0  0  0  0  0  0  0
    3.8971    5.2500    0.0000 C   0  0  0  0  0  0  0  0  0  0  0  0
    5.1962    4.5000    0.0000 F   0  0  0  0  0  0  0  0  0  0  0  0
    3.8971    6.7500    0.0000 C   0  0  0  0  0  0  0  0  0  0  0  0
    5.3971    6.7500    0.0000 F   0  0  0  0  0  0  0  0  0  0  0  0
    2.3971    6.7500    0.0000 F   0  0  0  0  0  0  0  0  0  0  0  0
    3.8971    8.2500    0.0000 C   0  0  0  0  0  0  0  0  0  0  0  0
    2.3971    8.2500    0.0000 F   0  0  0  0  0  0  0  0  0  0  0  0
    5.3971    8.2500    0.0000 F   0  0  0  0  0  0  0  0  0  0  0  0
    3.8971    9.7500    0.0000 C   0  0  0  0  0  0  0  0  0  0  0  0
    5.3971    9.7500    0.0000 F   0  0  0  0  0  0  0  0  0  0  0  0
    2.3971    9.7500    0.0000 F   0  0  0  0  0  0  0  0  0  0  0  0
    3.8971   11.2500    0.0000 C   0  0  0  0  0  0  0  0  0  0  0  0
    2.3971   11.2500    0.0000 F   0  0  0  0  0  0  0  0  0  0  0  0
    5.3971   11.2500    0.0000 F   0  0  0  0  0  0  0  0  0  0  0  0
    3.8971   12.7500    0.0000 C   0  0  0  0  0  0  0  0  0  0  0  0
    5.3971   12.7500    0.0000 F   0  0  0  0  0  0  0  0  0  0  0  0
    2.3971   12.7500    0.0000 F   0  0  0  0  0  0  0  0  0  0  0  0
    3.8971   14.2500    0.0000 C   0  0  0  0  0  0  0  0  0  0  0  0
    2.3971   14.2500    0.0000 F   0  0  0  0  0  0  0  0  0  0  0  0
    5.3971   14.2500    0.0000 F   0  0  0  0  0  0  0  0  0  0  0  0
    3.8971   15.7500    0.0000 C   0  0  0  0  0  0  0  0  0  0  0  0
    5.3971   15.7500    0.0000 F   0  0  0  0  0  0  0  0  0  0  0  0
    2.3971   15.7500    0.0000 F   0  0  0  0  0  0  0  0  0  0  0  0
    3.8971   17.2500    0.0000 C   0  0  0  0  0  0  0  0  0  0  0  0
    2.3971   17.2500    0.0000 F   0  0  0  0  0  0  0  0  0  0  0  0
    5.3971   17.2500    0.0000 F   0  0  0  0  0  0  0  0  0  0  0  0
    3.8971   18.7500    0.0000 C   0  0  0  0  0  0  0  0  0  0  0  0
    5.3971   18.7500    0.0000 F   0  0  0  0  0  0  0  0  0  0  0  0
    2.3971   18.7500    0.0000 F   0  0  0  0  0  0  0  0  0  0  0  0
    3.8971   20.2500    0.0000 C   0  0  0  0  0  0  0  0  0  0  0  0
    2.3971   20.2500    0.0000 F   0  0  0  0  0  0  0  0  0  0  0  0
    5.3971   20.2500    0.0000 F   0  0  0  0  0  0  0  0  0  0  0  0
    3.8971   21.7500    0.0000 C   0  0  0  0  0  0  0  0  0  0  0  0
    5.3971   21.7500    0.0000 F   0  0  0  0  0  0  0  0  0  0  0  0
    2.3971   21.7500    0.0000 F   0  0  0  0  0  0  0  0  0  0  0  0
    3.8971   23.2500    0.0000 C   0  0  0  0  0  0  0  0  0  0  0  0
    2.3971   23.2500    0.0000 F   0  0  0  0  0  0  0  0  0  0  0  0
    5.3971   23.2500    0.0000 F   0  0  0  0  0  0  0  0  0  0  0  0
    3.8971   24.7500    0.0000 C   0  0  0  0  0  0  0  0  0  0  0  0
    3.8971   26.2500    0.0000 F   0  0  0  0  0  0  0  0  0  0  0  0
    5.3971   24.7500    0.0000 F   0  0  0  0  0  0  0  0  0  0  0  0
    2.3971   24.7500    0.0000 F   0  0  0  0  0  0  0  0  0  0  0  0
  1  2  1  0
  2  3  1  0
  2  4  1  0
  4  5  1  0
  5  6  1  0
  5  7  1  0
  7  8  2  3
  8  9  1  0
  8 10  1  0
 10 11  1  0
 10 12  1  0
 10 13  1  0
 13 14  1  0
 13 15  1  0
 13 16  1  0
 16 17  1  0
 16 18  1  0
 16 19  1  0
 19 20  1  0
 19 21  1  0
 19 22  1  0
 22 23  1  0
 22 24  1  0
 22 25  1  0
 25 26  1  0
 25 27  1  0
 25 28  1  0
 28 29  1  0
 28 30  1  0
 28 31  1  0
 31 32  1  0
 31 33  1  0
 31 34  1  0
 34 35  1  0
 34 36  1  0
 34 37  1  0
 37 38  1  0
 37 39  1  0
 37 40  1  0
 40 41  1  0
 40 42  1  0
 40 43  1  0
 43 44  1  0
 43 45  1  0
 43 46  1  0
 46 47  1  0
 46 48  1  0
 46 49  1  0
M  END
$$$$

     RDKit          2D

 32 31  0  0  0  0  0  0  0  0999 V2000
   -1.5000    1.5000    0.0000 O   0  0  0  0  0  0  0  0  0  0  0  0
    0.0000    1.5000    0.0000 S   0  0  0  0  0  0  0  0  0  0  0  0
    0.7912    1.5972    0.0000 O   0  0  0  0  0  0  0  0  0  0  0  0
    0.0000    3.0000    0.0000 O   0  0  0  0  0  0  0  0  0  0  0  0
    0.0000    0.0000    0.0000 C   0  0  0  0  0  0  0  0  0  0  0  0
   -1.5000    0.0000    0.0000 F   0  0  0  0  0  0  0  0  0  0  0  0
   -0.0000   -1.5000    0.0000 Cl  0  0  0  0  0  0  0  0  0  0  0  0
    1.5000    0.0000    0.0000 C   0  0  0  0  0  0  0  0  0  0  0  0
    1.6080    0.8791    0.0000 F   0  0  0  0  0  0  0  0  0  0  0  0
    1.5000   -1.5000    0.0000 F   0  0  0  0  0  0  0  0  0  0  0  0
    3.0000    0.0000    0.0000 C   0  0  0  0  0  0  0  0  0  0  0  0
    3.0000   -1.5000    0.0000 F   0  0  0  0  0  0  0  0  0  0  0  0
    3.0000    1.5000    0.0000 F   0  0  0  0  0  0  0  0  0  0  0  0
    4.5000    0.0000    0.0000 C   0  0  0  0  0  0  0  0  0  0  0  0
    4.5000    1.5000    0.0000 F   0  0  0  0  0  0  0  0  0  0  0  0
    4.5000   -1.5000    0.0000 F   0  0  0  0  0  0  0  0  0  0  0  0
    6.0000    0.0000    0.0000 C   0  0  0  0  0  0  0  0  0  0  0  0
    6.0000   -1.5000    0.0000 F   0  0  0  0  0  0  0  0  0  0  0  0
    6.0000    1.5000    0.0000 F   0  0  0  0  0  0  0  0  0  0  0  0
    7.5000    0.0000    0.0000 C   0  0  0  0  0  0  0  0  0  0  0  0
    7.5000   -1.5000    0.0000 F   0  0  0  0  0  0  0  0  0  0  0  0
    7.5000    1.5000    0.0000 F   0  0  0  0  0  0  0  0  0  0  0  0
    9.0000    0.0000    0.0000 C   0  0  0  0  0  0  0  0  0  0  0  0
    9.0000    1.5000    0.0000 F   0  0  0  0  0  0  0  0  0  0  0  0
    9.0000   -1.5000    0.0000 F   0  0  0  0  0  0  0  0  0  0  0  0
   10.5000    0.0000    0.0000 C   0  0  0  0  0  0  0  0  0  0  0  0
   10.5000   -1.5000    0.0000 F   0  0  0  0  0  0  0  0  0  0  0  0
   10.5000    1.5000    0.0000 F   0  0  0  0  0  0  0  0  0  0  0  0
   12.0000    0.0000    0.0000 C   0  0  0  0  0  0  0  0  0  0  0  0
   13.5000    0.0000    0.0000 F   0  0  0  0  0  0  0  0  0  0  0  0
   12.0000    1.5000    0.0000 F   0  0  0  0  0  0  0  0  0  0  0  0
   12.0000   -1.5000    0.0000 F   0  0  0  0  0  0  0  0  0  0  0  0
  1  2  2  0
  2  3  2  0
  2  4  1  0
  2  5  1  0
  5  6  1  0
  5  7  1  0
  5  8  1  0
  8  9  1  0
  8 10  1  0
  8 11  1  0
 11 12  1  0
 11 13  1  0
 11 14  1  0
 14 15  1  0
 14 16  1  0
 14 17  1  0
 17 18  1  0
 17 19  1  0
 17 20  1  0
 20 21  1  0
 20 22  1  0
 20 23  1  0
 23 24  1  0
 23 25  1  0
 23 26  1  0
 26 27  1  0
 26 28  1  0
 26 29  1  0
 29 30  1  0
 29 31  1  0
 29 32  1  0
M  END
$$$$

     RDKit          2D

 50 49  0  0  0  0  0  0  0  0999 V2000
   -1.5000    1.5000    0.0000 O   0  0  0  0  0  0  0  0  0  0  0  0
    0.0000    1.5000    0.0000 S   0  0  0  0  0  0  0  0  0  0  0  0
    0.7912    1.5972    0.0000 O   0  0  0  0  0  0  0  0  0  0  0  0
    0.0000    3.0000    0.0000 O   0  0  0  0  0  0  0  0  0  0  0  0
    0.0000    0.0000    0.0000 C   0  0  0  0  0  0  0  0  0  0  0  0
   -1.5000    0.0000    0.0000 F   0  0  0  0  0  0  0  0  0  0  0  0
   -0.0000   -1.5000    0.0000 Cl  0  0  0  0  0  0  0  0  0  0  0  0
    1.5000    0.0000    0.0000 C   0  0  0  0  0  0  0  0  0  0  0  0
    1.6080    0.8791    0.0000 F   0  0  0  0  0  0  0  0  0  0  0  0
    1.5000   -1.5000    0.0000 F   0  0  0  0  0  0  0  0  0  0  0  0
    3.0000    0.0000    0.0000 C   0  0  0  0  0  0  0  0  0  0  0  0
    3.0000   -1.5000    0.0000 F   0  0  0  0  0  0  0  0  0  0  0  0
    3.0000    1.5000    0.0000 F   0  0  0  0  0  0  0  0  0  0  0  0
    4.5000    0.0000    0.0000 C   0  0  0  0  0  0  0  0  0  0  0  0
    4.5000    1.5000    0.0000 F   0  0  0  0  0  0  0  0  0  0  0  0
    4.5000   -1.5000    0.0000 F   0  0  0  0  0  0  0  0  0  0  0  0
    6.0000    0.0000    0.0000 C   0  0  0  0  0  0  0  0  0  0  0  0
    6.0000   -1.5000    0.0000 F   0  0  0  0  0  0  0  0  0  0  0  0
    6.0000    1.5000    0.0000 F   0  0  0  0  0  0  0  0  0  0  0  0
    7.5000    0.0000    0.0000 C   0  0  0  0  0  0  0  0  0  0  0  0
    7.5000    1.5000    0.0000 F   0  0  0  0  0  0  0  0  0  0  0  0
    7.5000   -1.5000    0.0000 F   0  0  0  0  0  0  0  0  0  0  0  0
    9.0000    0.0000    0.0000 C   0  0  0  0  0  0  0  0  0  0  0  0
    9.0000   -1.5000    0.0000 F   0  0  0  0  0  0  0  0  0  0  0  0
    9.0000    1.5000    0.0000 F   0  0  0  0  0  0  0  0  0  0  0  0
   10.5000    0.0000    0.0000 C   0  0  0  0  0  0  0  0  0  0  0  0
   10.5000    1.5000    0.0000 F   0  0  0  0  0  0  0  0  0  0  0  0
   10.5000   -1.5000    0.0000 F   0  0  0  0  0  0  0  0  0  0  0  0
   12.0000    0.0000    0.0000 C   0  0  0  0  0  0  0  0  0  0  0  0
   12.0000    1.5000    0.0000 F   0  0  0  0  0  0  0  0  0  0  0  0
   12.0000   -1.5000    0.0000 F   0  0  0  0  0  0  0  0  0  0  0  0
   13.5000    0.0000    0.0000 C   0  0  0  0  0  0  0  0  0  0  0  0
   13.5000   -1.5000    0.0000 F   0  0  0  0  0  0  0  0  0  0  0  0
   13.5000    1.5000    0.0000 F   0  0  0  0  0  0  0  0  0  0  0  0
   15.0000    0.0000    0.0000 C   0  0  0  0  0  0  0  0  0  0  0  0
   15.0000    1.5000    0.0000 F   0  0  0  0  0  0  0  0  0  0  0  0
   15.0000   -1.5000    0.0000 F   0  0  0  0  0  0  0  0  0  0  0  0
   16.5000    0.0000    0.0000 C   0  0  0  0  0  0  0  0  0  0  0  0
   16.5000   -1.5000    0.0000 F   0  0  0  0  0  0  0  0  0  0  0  0
   16.5000    1.5000    0.0000 F   0  0  0  0  0  0  0  0  0  0  0  0
   18.0000    0.0000    0.0000 C   0  0  0  0  0  0  0  0  0  0  0  0
   18.0000    1.5000    0.0000 F   0  0  0  0  0  0  0  0  0  0  0  0
   18.0000   -1.5000    0.0000 F   0  0  0  0  0  0  0  0  0  0  0  0
   19.5000    0.0000    0.0000 C   0  0  0  0  0  0  0  0  0  0  0  0
   19.5000   -1.5000    0.0000 F   0  0  0  0  0  0  0  0  0  0  0  0
   19.5000    1.5000    0.0000 F   0  0  0  0  0  0  0  0  0  0  0  0
   21.0000    0.0000    0.0000 C   0  0  0  0  0  0  0  0  0  0  0  0
   22.5000    0.0000    0.0000 F   0  0  0  0  0  0  0  0  0  0  0  0
   21.0000    1.5000    0.0000 F   0  0  0  0  0  0  0  0  0  0  0  0
   21.0000   -1.5000    0.0000 F   0  0  0  0  0  0  0  0  0  0  0  0
  1  2  2  0
  2  3  2  0
  2  4  1  0
  2  5  1  0
  5  6  1  0
  5  7  1  0
  5  8  1  0
  8  9  1  0
  8 10  1  0
  8 11  1  0
 11 12  1  0
 11 13  1  0
 11 14  1  0
 14 15  1  0
 14 16  1  0
 14 17  1  0
 17 18  1  0
 17 19  1  0
 17 20  1  0
 20 21  1  0
 20 22  1  0
 20 23  1  0
 23 24  1  0
 23 25  1  0
 23 26  1  0
 26 27  1  0
 26 28  1  0
 26 29  1  0
 29 30  1  0
 29 31  1  0
 29 32  1  0
 32 33  1  0
 32 34  1  0
 32 35  1  0
 35 36  1  0
 35 37  1  0
 35 38  1  0
 38 39  1  0
 38 40  1  0
 38 41  1  0
 41 42  1  0
 41 43  1  0
 41 44  1  0
 44 45  1  0
 44 46  1  0
 44 47  1  0
 47 48  1  0
 47 49  1  0
 47 50  1  0
M  END
$$$$

     RDKit          2D

 37 36  0  0  0  0  0  0  0  0999 V2000
    0.0000    0.0000    0.0000 C   0  0  0  0  0  0  0  0  0  0  0  0
    1.2990    0.7500    0.0000 N   0  0  0  0  0  0  0  0  0  0  0  0
    2.5981   -0.0000    0.0000 C   0  0  0  0  0  0  0  0  0  0  0  0
    3.8971    0.7500    0.0000 C   0  0  0  0  0  0  0  0  0  0  0  0
    3.8971    2.2500    0.0000 O   0  0  0  0  0  0  0  0  0  0  0  0
    5.1962    0.0000    0.0000 O   0  0  0  0  0  0  0  0  0  0  0  0
    1.2990    2.2500    0.0000 S   0  0  0  0  0  0  0  0  0  0  0  0
    0.5078    2.1528    0.0000 O   0  0  0  0  0  0  0  0  0  0  0  0
    2.7990    2.2500    0.0000 O   0  0  0  0  0  0  0  0  0  0  0  0
    1.2990    3.7500    0.0000 C   0  0  0  0  0  0  0  0  0  0  0  0
    2.7990    3.7500    0.0000 F   0  0  0  0  0  0  0  0  0  0  0  0
    1.2990    5.2500    0.0000 F   0  0  0  0  0  0  0  0  0  0  0  0
   -0.2010    3.7500    0.0000 C   0  0  0  0  0  0  0  0  0  0  0  0
   -0.3089    2.8709    0.0000 F   0  0  0  0  0  0  0  0  0  0  0  0
   -0.2010    5.2500    0.0000 F   0  0  0  0  0  0  0  0  0  0  0  0
   -1.7010    3.7500    0.0000 C   0  0  0  0  0  0  0  0  0  0  0  0
   -1.7010    2.2500    0.0000 F   0  0  0  0  0  0  0  0  0  0  0  0
   -1.7010    5.2500    0.0000 F   0  0  0  0  0  0  0  0  0  0  0  0
   -3.2010    3.7500    0.0000 C   0  0  0  0  0  0  0  0  0  0  0  0
   -3.2010    5.2500    0.0000 F   0  0  0  0  0  0  0  0  0  0  0  0
   -3.2010    2.2500    0.0000 F   0  0  0  0  0  0  0  0  0  0  0  0
   -4.7010    3.7500    0.0000 C   0  0  0  0  0  0  0  0  0  0  0  0
   -4.7010    2.2500    0.0000 F   0  0  0  0  0  0  0  0  0  0  0  0
   -4.7010    5.2500    0.0000 F   0  0  0  0  0  0  0  0  0  0  0  0
   -6.2010    3.7500    0.0000 C   0  0  0  0  0  0  0  0  0  0  0  0
   -6.2010    2.2500    0.0000 F   0  0  0  0  0  0  0  0  0  0  0  0
   -6.2010    5.2500    0.0000 F   0  0  0  0  0  0  0  0  0  0  0  0
   -7.7010    3.7500    0.0000 C   0  0  0  0  0  0  0  0  0  0  0  0
   -7.7010    5.2500    0.0000 F   0  0  0  0  0  0  0  0  0  0  0  0
   -7.7010    2.2500    0.0000 F   0  0  0  0  0  0  0  0  0  0  0  0
   -9.2010    3.7500    0.0000 C   0  0  0  0  0  0  0  0  0  0  0  0
   -9.2010    2.2500    0.0000 F   0  0  0  0  0  0  0  0  0  0  0  0
   -9.2010    5.2500    0.0000 F   0  0  0  0  0  0  0  0  0  0  0  0
  -10.7010    3.7500    0.0000 C   0  0  0  0  0  0  0  0  0  0  0  0
  -12.2010    3.7500    0.0000 F   0  0  0  0  0  0  0  0  0  0  0  0
  -10.7010    5.2500    0.0000 F   0  0  0  0  0  0  0  0  0  0  0  0
  -10.7010    2.2500    0.0000 F   0  0  0  0  0  0  0  0  0  0  0  0
  1  2  1  0
  2  3  1  0
  3  4  1  0
  4  5  2  0
  4  6  1  0
  2  7  1  0
  7  8  2  0
  7  9  2  0
  7 10  1  0
 10 11  1  0
 10 12  1  0
 10 13  1  0
 13 14  1  0
 13 15  1  0
 13 16  1  0
 16 17  1  0
 16 18  1  0
 16 19  1  0
 19 20  1  0
 19 21  1  0
 19 22  1  0
 22 23  1  0
 22 24  1  0
 22 25  1  0
 25 26  1  0
 25 27  1  0
 25 28  1  0
 28 29  1  0
 28 30  1  0
 28 31  1  0
 31 32  1  0
 31 33  1  0
 31 34  1  0
 34 35  1  0
 34 36  1  0
 34 37  1  0
M  END
$$$$

     RDKit          2D

 52 51  0  0  0  0  0  0  0  0999 V2000
    0.0000    0.0000    0.0000 C   0  0  0  0  0  0  0  0  0  0  0  0
    1.2990    0.7500    0.0000 N   0  0  0  0  0  0  0  0  0  0  0  0
    2.5981   -0.0000    0.0000 C   0  0  0  0  0  0  0  0  0  0  0  0
    3.8971    0.7500    0.0000 C   0  0  0  0  0  0  0  0  0  0  0  0
    3.8971    2.2500    0.0000 O   0  0  0  0  0  0  0  0  0  0  0  0
    5.1962    0.0000    0.0000 O   0  0  0  0  0  0  0  0  0  0  0  0
    1.2990    2.2500    0.0000 S   0  0  0  0  0  0  0  0  0  0  0  0
    0.5078    2.1528    0.0000 O   0  0  0  0  0  0  0  0  0  0  0  0
    2.7990    2.2500    0.0000 O   0  0  0  0  0  0  0  0  0  0  0  0
    1.2990    3.7500    0.0000 C   0  0  0  0  0  0  0  0  0  0  0  0
    2.7990    3.7500    0.0000 F   0  0  0  0  0  0  0  0  0  0  0  0
    1.2990    5.2500    0.0000 F   0  0  0  0  0  0  0  0  0  0  0  0
   -0.2010    3.7500    0.0000 C   0  0  0  0  0  0  0  0  0  0  0  0
   -0.3089    2.8709    0.0000 F   0  0  0  0  0  0  0  0  0  0  0  0
   -0.2010    5.2500    0.0000 F   0  0  0  0  0  0  0  0  0  0  0  0
   -1.7010    3.7500    0.0000 C   0  0  0  0  0  0  0  0  0  0  0  0
   -1.7010    2.2500    0.0000 F   0  0  0  0  0  0  0  0  0  0  0  0
   -1.7010    5.2500    0.0000 F   0  0  0  0  0  0  0  0  0  0  0  0
   -3.2010    3.7500    0.0000 C   0  0  0  0  0  0  0  0  0  0  0  0
   -3.2010    5.2500    0.0000 F   0  0  0  0  0  0  0  0  0  0  0  0
   -3.2010    2.2500    0.0000 F   0  0  0  0  0  0  0  0  0  0  0  0
   -4.7010    3.7500    0.0000 C   0  0  0  0  0  0  0  0  0  0  0  0
   -4.7010    2.2500    0.0000 F   0  0  0  0  0  0  0  0  0  0  0  0
   -4.7010    5.2500    0.0000 F   0  0  0  0  0  0  0  0  0  0  0  0
   -6.2010    3.7500    0.0000 C   0  0  0  0  0  0  0  0  0  0  0  0
   -6.2010    5.2500    0.0000 F   0  0  0  0  0  0  0  0  0  0  0  0
   -6.2010    2.2500    0.0000 F   0  0  0  0  0  0  0  0  0  0  0  0
   -7.7010    3.7500    0.0000 C   0  0  0  0  0  0  0  0  0  0  0  0
   -7.7010    2.2500    0.0000 F   0  0  0  0  0  0  0  0  0  0  0  0
   -7.7010    5.2500    0.0000 F   0  0  0  0  0  0  0  0  0  0  0  0
   -9.2010    3.7500    0.0000 C   0  0  0  0  0  0  0  0  0  0  0  0
   -9.2010    2.2500    0.0000 F   0  0  0  0  0  0  0  0  0  0  0  0
   -9.2010    5.2500    0.0000 F   0  0  0  0  0  0  0  0  0  0  0  0
  -10.7010    3.7500    0.0000 C   0  0  0  0  0  0  0  0  0  0  0  0
  -10.7010    5.2500    0.0000 F   0  0  0  0  0  0  0  0  0  0  0  0
  -10.7010    2.2500    0.0000 F   0  0  0  0  0  0  0  0  0  0  0  0
  -12.2010    3.7500    0.0000 C   0  0  0  0  0  0  0  0  0  0  0  0
  -12.2010    2.2500    0.0000 F   0  0  0  0  0  0  0  0  0  0  0  0
  -12.2010    5.2500    0.0000 F   0  0  0  0  0  0  0  0  0  0  0  0
  -13.7010    3.7500    0.0000 C   0  0  0  0  0  0  0  0  0  0  0  0
  -13.7010    5.2500    0.0000 F   0  0  0  0  0  0  0  0  0  0  0  0
  -13.7010    2.2500    0.0000 F   0  0  0  0  0  0  0  0  0  0  0  0
  -15.2010    3.7500    0.0000 C   0  0  0  0  0  0  0  0  0  0  0  0
  -15.2010    2.2500    0.0000 F   0  0  0  0  0  0  0  0  0  0  0  0
  -15.2010    5.2500    0.0000 F   0  0  0  0  0  0  0  0  0  0  0  0
  -16.7010    3.7500    0.0000 C   0  0  0  0  0  0  0  0  0  0  0  0
  -16.7010    5.2500    0.0000 F   0  0  0  0  0  0  0  0  0  0  0  0
  -16.7010    2.2500    0.0000 F   0  0  0  0  0  0  0  0  0  0  0  0
  -18.2010    3.7500    0.0000 C   0  0  0  0  0  0  0  0  0  0  0  0
  -19.7010    3.7500    0.0000 F   0  0  0  0  0  0  0  0  0  0  0  0
  -18.2010    2.2500    0.0000 F   0  0  0  0  0  0  0  0  0  0  0  0
  -18.2010    5.2500    0.0000 F   0  0  0  0  0  0  0  0  0  0  0  0
  1  2  1  0
  2  3  1  0
  3  4  1  0
  4  5  2  0
  4  6  1  0
  2  7  1  0
  7  8  2  0
  7  9  2  0
  7 10  1  0
 10 11  1  0
 10 12  1  0
 10 13  1  0
 13 14  1  0
 13 15  1  0
 13 16  1  0
 16 17  1  0
 16 18  1  0
 16 19  1  0
 19 20  1  0
 19 21  1  0
 19 22  1  0
 22 23  1  0
 22 24  1  0
 22 25  1  0
 25 26  1  0
 25 27  1  0
 25 28  1  0
 28 29  1  0
 28 30  1  0
 28 31  1  0
 31 32  1  0
 31 33  1  0
 31 34  1  0
 34 35  1  0
 34 36  1  0
 34 37  1  0
 37 38  1  0
 37 39  1  0
 37 40  1  0
 40 41  1  0
 40 42  1  0
 40 43  1  0
 43 44  1  0
 43 45  1  0
 43 46  1  0
 46 47  1  0
 46 48  1  0
 46 49  1  0
 49 50  1  0
 49 51  1  0
 49 52  1  0
M  END
$$$$

     RDKit          2D

 46 45  0  0  0  0  0  0  0  0999 V2000
    0.0000    0.0000    0.0000 C   0  0  0  0  0  0  0  0  0  0  0  0
    1.2990    0.7500    0.0000 N   0  0  0  0  0  0  0  0  0  0  0  0
    2.5981    1.5000    0.0000 C   0  0  0  0  0  0  0  0  0  0  0  0
    2.0490   -0.5490    0.0000 C   0  0  0  0  0  0  0  0  0  0  0  0
    3.5490   -0.5490    0.0000 C   0  0  0  0  0  0  0  0  0  0  0  0
    4.2990   -1.8481    0.0000 C   0  0  0  0  0  0  0  0  0  0  0  0
    5.5981   -1.0981    0.0000 F   0  0  0  0  0  0  0  0  0  0  0  0
    3.0000   -2.5981    0.0000 F   0  0  0  0  0  0  0  0  0  0  0  0
    5.0490   -3.1471    0.0000 C   0  0  0  0  0  0  0  0  0  0  0  0
    3.7500   -3.8971    0.0000 F   0  0  0  0  0  0  0  0  0  0  0  0
    6.3481   -2.3971    0.0000 F   0  0  0  0  0  0  0  0  0  0  0  0
    5.7990   -4.4462    0.0000 C   0  0  0  0  0  0  0  0  0  0  0  0
    7.0981   -3.6962    0.0000 F   0  0  0  0  0  0  0  0  0  0  0  0
    4.5000   -5.1962    0.0000 F   0  0  0  0  0  0  0  0  0  0  0  0
    6.5490   -5.7452    0.0000 C   0  0  0  0  0  0  0  0  0  0  0  0
    5.2500   -6.4952    0.0000 F   0  0  0  0  0  0  0  0  0  0  0  0
    7.8481   -4.9952    0.0000 F   0  0  0  0  0  0  0  0  0  0  0  0
    7.2990   -7.0442    0.0000 C   0  0  0  0  0  0  0  0  0  0  0  0
    8.5981   -6.2942    0.0000 F   0  0  0  0  0  0  0  0  0  0  0  0
    6.0000   -7.7942    0.0000 F   0  0  0  0  0  0  0  0  0  0  0  0
    8.0490   -8.3433    0.0000 C   0  0  0  0  0  0  0  0  0  0  0  0
    6.7500   -9.0933    0.0000 F   0  0  0  0  0  0  0  0  0  0  0  0
    9.3481   -7.5933    0.0000 F   0  0  0  0  0  0  0  0  0  0  0  0
    8.7990   -9.6423    0.0000 C   0  0  0  0  0  0  0  0  0  0  0  0
   10.0981   -8.8923    0.0000 F   0  0  0  0  0  0  0  0  0  0  0  0
    7.5000  -10.3923    0.0000 F   0  0  0  0  0  0  0  0  0  0  0  0
    9.5490  -10.9413    0.0000 C   0  0  0  0  0  0  0  0  0  0  0  0
    8.2500  -11.6913    0.0000 F   0  0  0  0  0  0  0  0  0  0  0  0
   10.8481  -10.1913    0.0000 F   0  0  0  0  0  0  0  0  0  0  0  0
   10.2990  -12.2404    0.0000 C   0  0  0  0  0  0  0  0  0  0  0  0
   11.5981  -11.4904    0.0000 F   0  0  0  0  0  0  0  0  0  0  0  0
    9.0000  -12.9904    0.0000 F   0  0  0  0  0  0  0  0  0  0  0  0
   11.0490  -13.5394    0.0000 C   0  0  0  0  0  0  0  0  0  0  0  0
    9.7500  -14.2894    0.0000 F   0  0  0  0  0  0  0  0  0  0  0  0
   12.3481  -12.7894    0.0000 F   0  0  0  0  0  0  0  0  0  0  0  0
   11.7990  -14.8385    0.0000 C   0  0  0  0  0  0  0  0  0  0  0  0
   13.0981  -14.0885    0.0000 F   0  0  0  0  0  0  0  0  0  0  0  0
   10.5000  -15.5885    0.0000 F   0  0  0  0  0  0  0  0  0  0  0  0
   12.5490  -16.1375    0.0000 C   0  0  0  0  0  0  0  0  0  0  0  0
   13.2990  -17.4365    0.0000 F   0  0  0  0  0  0  0  0  0  0  0  0
   11.2500  -16.8875    0.0000 F   0  0  0  0  0  0  0  0  0  0  0  0
   13.8481  -15.3875    0.0000 F   0  0  0  0  0  0  0  0  0  0  0  0
    0.5490    2.0490    0.0000 C   0  0  0  0  0  0  0  0  0  0  0  0
    1.2990    3.3481    0.0000 C   0  0  0  0  0  0  0  0  0  0  0  0
    2.7990    3.3481    0.0000 O   0  0  0  0  0  0  0  0  0  0  0  0
    0.5490    4.6471    0.0000 O   0  0  0  0  0  0  0  0  0  0  0  0
  1  2  1  0
  2  3  1  0
  2  4  1  0
  4  5  1  0
  5  6  1  0
  6  7  1  0
  6  8  1  0
  6  9  1  0
  9 10  1  0
  9 11  1  0
  9 12  1  0
 12 13  1  0
 12 14  1  0
 12 15  1  0
 15 16  1  0
 15 17  1  0
 15 18  1  0
 18 19  1  0
 18 20  1  0
 18 21  1  0
 21 22  1  0
 21 23  1  0
 21 24  1  0
 24 25  1  0
 24 26  1  0
 24 27  1  0
 27 28  1  0
 27 29  1  0
 27 30  1  0
 30 31  1  0
 30 32  1  0
 30 33  1  0
 33 34  1  0
 33 35  1  0
 33 36  1  0
 36 37  1  0
 36 38  1  0
 36 39  1  0
 39 40  1  0
 39 41  1  0
 39 42  1  0
  2 43  1  0
 43 44  1  0
 44 45  2  0
 44 46  1  0
M  CHG  2   2   1  46  -1
M  END
$$$$

     RDKit          2D

 12 11  0  0  0  0  0  0  0  0999 V2000
   -1.5000    0.0000    0.0000 F   0  0  0  0  0  0  0  0  0  0  0  0
    0.0000    0.0000    0.0000 C   0  0  0  0  0  0  0  0  0  0  0  0
    0.0000    1.5000    0.0000 F   0  0  0  0  0  0  0  0  0  0  0  0
   -0.0000   -1.5000    0.0000 Cl  0  0  0  0  0  0  0  0  0  0  0  0
    1.5000    0.0000    0.0000 O   0  0  0  0  0  0  0  0  0  0  0  0
    2.2500   -1.2990    0.0000 C   0  0  0  0  0  0  0  0  0  0  0  0
    0.9510   -2.0490    0.0000 F   0  0  0  0  0  0  0  0  0  0  0  0
    3.5490   -0.5490    0.0000 Cl  0  0  0  0  0  0  0  0  0  0  0  0
    3.0000   -2.5981    0.0000 C   0  0  0  0  0  0  0  0  0  0  0  0
    3.7500   -3.8971    0.0000 F   0  0  0  0  0  0  0  0  0  0  0  0
    1.7010   -3.3481    0.0000 F   0  0  0  0  0  0  0  0  0  0  0  0
    4.2990   -1.8481    0.0000 F   0  0  0  0  0  0  0  0  0  0  0  0
  1  2  1  0
  2  3  1  0
  2  4  1  0
  2  5  1  0
  5  6  1  0
  6  7  1  0
  6  8  1  0
  6  9  1  0
  9 10  1  0
  9 11  1  0
  9 12  1  0
M  END
$$$$

     RDKit          2D

 11 10  0  0  0  0  0  0  0  0999 V2000
   -1.2990    0.7500    0.0000 F   0  0  0  0  0  0  0  0  0  0  0  0
    0.0000    0.0000    0.0000 C   0  0  0  0  0  0  0  0  0  0  0  0
   -0.0000   -1.5000    0.0000 Cl  0  0  0  0  0  0  0  0  0  0  0  0
    1.2990    0.7500    0.0000 C   0  0  0  0  0  0  0  0  0  0  0  0
    2.0490   -0.5490    0.0000 F   0  0  0  0  0  0  0  0  0  0  0  0
    0.5490    2.0490    0.0000 F   0  0  0  0  0  0  0  0  0  0  0  0
    2.5981    1.5000    0.0000 O   0  0  0  0  0  0  0  0  0  0  0  0
    2.5981    3.0000    0.0000 C   0  0  0  0  0  0  0  0  0  0  0  0
    2.5981    4.5000    0.0000 F   0  0  0  0  0  0  0  0  0  0  0  0
    4.0981    3.0000    0.0000 F   0  0  0  0  0  0  0  0  0  0  0  0
    1.0981    3.0000    0.0000 Cl  0  0  0  0  0  0  0  0  0  0  0  0
  1  2  1  0
  2  3  1  0
  2  4  1  0
  4  5  1  0
  4  6  1  0
  4  7  1  0
  7  8  1  0
  8  9  1  0
  8 10  1  0
  8 11  1  0
M  END
$$$$

     RDKit          2D

 70 71  0  0  0  0  0  0  0  0999 V2000
    3.0000   -2.5981    0.0000 O   0  0  0  0  0  0  0  0  0  0  0  0
    3.7500   -1.2990    0.0000 C   0  0  0  0  0  0  0  0  0  0  0  0
    3.0000    0.0000    0.0000 N   0  0  0  0  0  0  0  0  0  0  0  0
    1.5000    0.0000    0.0000 C   0  0  0  0  0  0  0  0  0  0  0  0
    0.7500   -1.2990    0.0000 C   0  0  0  0  0  0  0  0  0  0  0  0
   -0.7500   -1.2990    0.0000 C   0  0  0  0  0  0  0  0  0  0  0  0
   -1.5000    0.0000    0.0000 C   0  0  0  0  0  0  0  0  0  0  0  0
   -3.0000    0.0000    0.0000 N   0  0  0  0  0  0  0  0  0  0  0  0
   -3.7500   -1.2990    0.0000 N   0  0  0  0  0  0  0  0  0  0  0  0
   -5.2500   -1.2990    0.0000 C   0  0  0  0  0  0  0  0  0  0  0  0
   -6.0000    0.0000    0.0000 C   0  0  0  0  0  0  0  0  0  0  0  0
   -7.5000    0.0000    0.0000 C   0  0  0  0  0  0  0  0  0  0  0  0
   -8.2500   -1.2990    0.0000 C   0  0  0  0  0  0  0  0  0  0  0  0
   -7.5000   -2.5981    0.0000 C   0  0  0  0  0  0  0  0  0  0  0  0
   -6.0000   -2.5981    0.0000 C   0  0  0  0  0  0  0  0  0  0  0  0
   -0.7500    1.2990    0.0000 C   0  0  0  0  0  0  0  0  0  0  0  0
   -1.5000    2.5981    0.0000 N   0  0  0  0  0  0  0  0  0  0  0  0
   -0.7500    3.8971    0.0000 C   0  0  0  0  0  0  0  0  0  0  0  0
    0.7500    3.8971    0.0000 O   0  0  0  0  0  0  0  0  0  0  0  0
   -1.5000    5.1962    0.0000 C   0  0  0  0  0  0  0  0  0  0  0  0
   -0.2010    5.9462    0.0000 F   0  0  0  0  0  0  0  0  0  0  0  0
   -2.7990    4.4462    0.0000 F   0  0  0  0  0  0  0  0  0  0  0  0
   -2.2500    6.4952    0.0000 C   0  0  0  0  0  0  0  0  0  0  0  0
   -3.5490    5.7452    0.0000 F   0  0  0  0  0  0  0  0  0  0  0  0
   -0.9510    7.2452    0.0000 F   0  0  0  0  0  0  0  0  0  0  0  0
   -3.0000    7.7942    0.0000 C   0  0  0  0  0  0  0  0  0  0  0  0
   -1.7010    8.5442    0.0000 F   0  0  0  0  0  0  0  0  0  0  0  0
   -4.2990    7.0442    0.0000 F   0  0  0  0  0  0  0  0  0  0  0  0
   -3.7500    9.0933    0.0000 C   0  0  0  0  0  0  0  0  0  0  0  0
   -5.0490    8.3433    0.0000 F   0  0  0  0  0  0  0  0  0  0  0  0
   -2.4510    9.8433    0.0000 F   0  0  0  0  0  0  0  0  0  0  0  0
   -4.5000   10.3923    0.0000 C   0  0  0  0  0  0  0  0  0  0  0  0
   -3.2010   11.1423    0.0000 F   0  0  0  0  0  0  0  0  0  0  0  0
   -5.7990    9.6423    0.0000 F   0  0  0  0  0  0  0  0  0  0  0  0
   -5.2500   11.6913    0.0000 C   0  0  0  0  0  0  0  0  0  0  0  0
   -6.5490   10.9413    0.0000 F   0  0  0  0  0  0  0  0  0  0  0  0
   -3.9510   12.4413    0.0000 F   0  0  0  0  0  0  0  0  0  0  0  0
   -6.0000   12.9904    0.0000 C   0  0  0  0  0  0  0  0  0  0  0  0
   -4.7010   13.7404    0.0000 F   0  0  0  0  0  0  0  0  0  0  0  0
   -7.2990   12.2404    0.0000 F   0  0  0  0  0  0  0  0  0  0  0  0
   -6.7500   14.2894    0.0000 C   0  0  0  0  0  0  0  0  0  0  0  0
   -7.5000   15.5885    0.0000 F   0  0  0  0  0  0  0  0  0  0  0  0
   -8.0490   13.5394    0.0000 F   0  0  0  0  0  0  0  0  0  0  0  0
   -5.4510   15.0394    0.0000 F   0  0  0  0  0  0  0  0  0  0  0  0
    0.7500    1.2990    0.0000 C   0  0  0  0  0  0  0  0  0  0  0  0
    5.2500   -1.2990    0.0000 C   0  0  0  0  0  0  0  0  0  0  0  0
    5.2500   -2.7990    0.0000 F   0  0  0  0  0  0  0  0  0  0  0  0
    5.2500    0.2010    0.0000 F   0  0  0  0  0  0  0  0  0  0  0  0
    6.7500   -1.2990    0.0000 C   0  0  0  0  0  0  0  0  0  0  0  0
    6.7500    0.2010    0.0000 F   0  0  0  0  0  0  0  0  0  0  0  0
    6.7500   -2.7990    0.0000 F   0  0  0  0  0  0  0  0  0  0  0  0
    8.2500   -1.2990    0.0000 C   0  0  0  0  0  0  0  0  0  0  0  0
    8.2500   -2.7990    0.0000 F   0  0  0  0  0  0  0  0  0  0  0  0
    8.2500    0.2010    0.0000 F   0  0  0  0  0  0  0  0  0  0  0  0
    9.7500   -1.2990    0.0000 C   0  0  0  0  0  0  0  0  0  0  0  0
    9.7500    0.2010    0.0000 F   0  0  0  0  0  0  0  0  0  0  0  0
    9.7500   -2.7990    0.0000 F   0  0  0  0  0  0  0  0  0  0  0  0
   11.2500   -1.2990    0.0000 C   0  0  0  0  0  0  0  0  0  0  0  0
   11.2500   -2.7990    0.0000 F   0  0  0  0  0  0  0  0  0  0  0  0
   11.2500    0.2010    0.0000 F   0  0  0  0  0  0  0  0  0  0  0  0
   12.7500   -1.2990    0.0000 C   0  0  0  0  0  0  0  0  0  0  0  0
   12.7500    0.2010    0.0000 F   0  0  0  0  0  0  0  0  0  0  0  0
   12.7500   -2.7990    0.0000 F   0  0  0  0  0  0  0  0  0  0  0  0
   14.2500   -1.2990    0.0000 C   0  0  0  0  0  0  0  0  0  0  0  0
   14.2500   -2.7990    0.0000 F   0  0  0  0  0  0  0  0  0  0  0  0
   14.2500    0.2010    0.0000 F   0  0  0  0  0  0  0  0  0  0  0  0
   15.7500   -1.2990    0.0000 C   0  0  0  0  0  0  0  0  0  0  0  0
   17.2500   -1.2990    0.0000 F   0  0  0  0  0  0  0  0  0  0  0  0
   15.7500    0.2010    0.0000 F   0  0  0  0  0  0  0  0  0  0  0  0
   15.7500   -2.7990    0.0000 F   0  0  0  0  0  0  0  0  0  0  0  0
  1  2  2  0
  2  3  1  0
  3  4  1  0
  4  5  2  0
  5  6  1  0
  6  7  2  0
  7  8  1  0
  8  9  2  3
  9 10  1  0
 10 11  2  0
 11 12  1  0
 12 13  2  0
 13 14  1  0
 14 15  2  0
  7 16  1  0
 16 17  1  0
 17 18  1  0
 18 19  2  0
 18 20  1  0
 20 21  1  0
 20 22  1  0
 20 23  1  0
 23 24  1  0
 23 25  1  0
 23 26  1  0
 26 27  1  0
 26 28  1  0
 26 29  1  0
 29 30  1  0
 29 31  1  0
 29 32  1  0
 32 33  1  0
 32 34  1  0
 32 35  1  0
 35 36  1  0
 35 37  1  0
 35 38  1  0
 38 39  1  0
 38 40  1  0
 38 41  1  0
 41 42  1  0
 41 43  1  0
 41 44  1  0
 16 45  2  0
  2 46  1  0
 46 47  1  0
 46 48  1  0
 46 49  1  0
 49 50  1  0
 49 51  1  0
 49 52  1  0
 52 53  1  0
 52 54  1  0
 52 55  1  0
 55 56  1  0
 55 57  1  0
 55 58  1  0
 58 59  1  0
 58 60  1  0
 58 61  1  0
 61 62  1  0
 61 63  1  0
 61 64  1  0
 64 65  1  0
 64 66  1  0
 64 67  1  0
 67 68  1  0
 67 69  1  0
 67 70  1  0
 45  4  1  0
 15 10  1  0
M  END
$$$$

     RDKit          2D

 56 57  0  0  0  0  0  0  0  0999 V2000
    3.0000   -2.5981    0.0000 O   0  0  0  0  0  0  0  0  0  0  0  0
    3.7500   -1.2990    0.0000 C   0  0  0  0  0  0  0  0  0  0  0  0
    3.0000    0.0000    0.0000 N   0  0  0  0  0  0  0  0  0  0  0  0
    1.5000    0.0000    0.0000 C   0  0  0  0  0  0  0  0  0  0  0  0
    0.7500   -1.2990    0.0000 C   0  0  0  0  0  0  0  0  0  0  0  0
   -0.7500   -1.2990    0.0000 C   0  0  0  0  0  0  0  0  0  0  0  0
   -1.5000    0.0000    0.0000 C   0  0  0  0  0  0  0  0  0  0  0  0
   -3.0000    0.0000    0.0000 N   0  0  0  0  0  0  0  0  0  0  0  0
   -3.7500   -1.2990    0.0000 N   0  0  0  0  0  0  0  0  0  0  0  0
   -5.2500   -1.2990    0.0000 C   0  0  0  0  0  0  0  0  0  0  0  0
   -6.0000    0.0000    0.0000 C   0  0  0  0  0  0  0  0  0  0  0  0
   -7.5000    0.0000    0.0000 C   0  0  0  0  0  0  0  0  0  0  0  0
   -8.2500   -1.2990    0.0000 C   0  0  0  0  0  0  0  0  0  0  0  0
   -7.5000   -2.5981    0.0000 C   0  0  0  0  0  0  0  0  0  0  0  0
   -6.0000   -2.5981    0.0000 C   0  0  0  0  0  0  0  0  0  0  0  0
   -0.7500    1.2990    0.0000 C   0  0  0  0  0  0  0  0  0  0  0  0
   -1.5000    2.5981    0.0000 N   0  0  0  0  0  0  0  0  0  0  0  0
   -0.7500    3.8971    0.0000 C   0  0  0  0  0  0  0  0  0  0  0  0
    0.7500    3.8971    0.0000 O   0  0  0  0  0  0  0  0  0  0  0  0
   -1.5000    5.1962    0.0000 C   0  0  0  0  0  0  0  0  0  0  0  0
   -0.2010    5.9462    0.0000 F   0  0  0  0  0  0  0  0  0  0  0  0
   -2.7990    4.4462    0.0000 F   0  0  0  0  0  0  0  0  0  0  0  0
   -2.2500    6.4952    0.0000 C   0  0  0  0  0  0  0  0  0  0  0  0
   -3.5490    5.7452    0.0000 F   0  0  0  0  0  0  0  0  0  0  0  0
   -0.9510    7.2452    0.0000 F   0  0  0  0  0  0  0  0  0  0  0  0
   -3.0000    7.7942    0.0000 C   0  0  0  0  0  0  0  0  0  0  0  0
   -1.7010    8.5442    0.0000 F   0  0  0  0  0  0  0  0  0  0  0  0
   -4.2990    7.0442    0.0000 F   0  0  0  0  0  0  0  0  0  0  0  0
   -3.7500    9.0933    0.0000 C   0  0  0  0  0  0  0  0  0  0  0  0
   -2.4510    9.8433    0.0000 F   0  0  0  0  0  0  0  0  0  0  0  0
   -5.0490    8.3433    0.0000 F   0  0  0  0  0  0  0  0  0  0  0  0
   -4.5000   10.3923    0.0000 C   0  0  0  0  0  0  0  0  0  0  0  0
   -5.7990    9.6423    0.0000 F   0  0  0  0  0  0  0  0  0  0  0  0
   -3.2010   11.1423    0.0000 F   0  0  0  0  0  0  0  0  0  0  0  0
   -5.2500   11.6913    0.0000 C   0  0  0  0  0  0  0  0  0  0  0  0
   -6.7500   11.6913    0.0000 F   0  0  0  0  0  0  0  0  0  0  0  0
   -4.5000   12.9904    0.0000 F   0  0  0  0  0  0  0  0  0  0  0  0
    0.7500    1.2990    0.0000 C   0  0  0  0  0  0  0  0  0  0  0  0
    5.2500   -1.2990    0.0000 C   0  0  0  0  0  0  0  0  0  0  0  0
    5.2500   -2.7990    0.0000 F   0  0  0  0  0  0  0  0  0  0  0  0
    5.2500    0.2010    0.0000 F   0  0  0  0  0  0  0  0  0  0  0  0
    6.7500   -1.2990    0.0000 C   0  0  0  0  0  0  0  0  0  0  0  0
    6.7500    0.2010    0.0000 F   0  0  0  0  0  0  0  0  0  0  0  0
    6.7500   -2.7990    0.0000 F   0  0  0  0  0  0  0  0  0  0  0  0
    8.2500   -1.2990    0.0000 C   0  0  0  0  0  0  0  0  0  0  0  0
    8.2500   -2.7990    0.0000 F   0  0  0  0  0  0  0  0  0  0  0  0
    8.2500    0.2010    0.0000 F   0  0  0  0  0  0  0  0  0  0  0  0
    9.7500   -1.2990    0.0000 C   0  0  0  0  0  0  0  0  0  0  0  0
    9.7500   -2.7990    0.0000 F   0  0  0  0  0  0  0  0  0  0  0  0
    9.7500    0.2010    0.0000 F   0  0  0  0  0  0  0  0  0  0  0  0
   11.2500   -1.2990    0.0000 C   0  0  0  0  0  0  0  0  0  0  0  0
   11.2500    0.2010    0.0000 F   0  0  0  0  0  0  0  0  0  0  0  0
   11.2500   -2.7990    0.0000 F   0  0  0  0  0  0  0  0  0  0  0  0
   12.7500   -1.2990    0.0000 C   0  0  0  0  0  0  0  0  0  0  0  0
   13.5000    0.0000    0.0000 F   0  0  0  0  0  0  0  0  0  0  0  0
   13.5000   -2.5981    0.0000 F   0  0  0  0  0  0  0  0  0  0  0  0
  1  2  2  0
  2  3  1  0
  3  4  1  0
  4  5  2  0
  5  6  1  0
  6  7  2  0
  7  8  1  0
  8  9  2  3
  9 10  1  0
 10 11  2  0
 11 12  1  0
 12 13  2  0
 13 14  1  0
 14 15  2  0
  7 16  1  0
 16 17  1  0
 17 18  1  0
 18 19  2  0
 18 20  1  0
 20 21  1  0
 20 22  1  0
 20 23  1  0
 23 24  1  0
 23 25  1  0
 23 26  1  0
 26 27  1  0
 26 28  1  0
 26 29  1  0
 29 30  1  0
 29 31  1  0
 29 32  1  0
 32 33  1  0
 32 34  1  0
 32 35  1  0
 35 36  1  0
 35 37  1  0
 16 38  2  0
  2 39  1  0
 39 40  1  0
 39 41  1  0
 39 42  1  0
 42 43  1  0
 42 44  1  0
 42 45  1  0
 45 46  1  0
 45 47  1  0
 45 48  1  0
 48 49  1  0
 48 50  1  0
 48 51  1  0
 51 52  1  0
 51 53  1  0
 51 54  1  0
 54 55  1  0
 54 56  1  0
 38  4  1  0
 15 10  1  0
M  END
$$$$

     RDKit          2D

 42 43  0  0  0  0  0  0  0  0999 V2000
    5.2500   -1.2990    0.0000 C   0  0  0  0  0  0  0  0  0  0  0  0
    3.7500   -1.2990    0.0000 C   0  0  0  0  0  0  0  0  0  0  0  0
    3.0000    0.0000    0.0000 N   0  0  0  0  0  0  0  0  0  0  0  0
    3.7500    1.2990    0.0000 C   0  0  0  0  0  0  0  0  0  0  0  0
    5.2500    1.2990    0.0000 C   0  0  0  0  0  0  0  0  0  0  0  0
    6.0000    2.5981    0.0000 O   0  0  0  0  0  0  0  0  0  0  0  0
    1.5000    0.0000    0.0000 C   0  0  0  0  0  0  0  0  0  0  0  0
    0.7500   -1.2990    0.0000 C   0  0  0  0  0  0  0  0  0  0  0  0
   -0.7500   -1.2990    0.0000 C   0  0  0  0  0  0  0  0  0  0  0  0
   -1.5000    0.0000    0.0000 C   0  0  0  0  0  0  0  0  0  0  0  0
   -3.0000    0.0000    0.0000 N   0  0  0  0  0  0  0  0  0  0  0  0
   -3.7500    1.2990    0.0000 N   0  0  0  0  0  0  0  0  0  0  0  0
   -5.2500    1.2990    0.0000 C   0  0  0  0  0  0  0  0  0  0  0  0
   -6.0000    2.5981    0.0000 C   0  0  0  0  0  0  0  0  0  0  0  0
   -7.5000    2.5981    0.0000 C   0  0  0  0  0  0  0  0  0  0  0  0
   -8.2500    1.2990    0.0000 C   0  0  0  0  0  0  0  0  0  0  0  0
   -9.7500    1.2990    0.0000 S   0  0  0  0  0  0  0  0  0  0  0  0
   -9.7500    2.7990    0.0000 O   0  0  0  0  0  0  0  0  0  0  0  0
   -9.7500   -0.2010    0.0000 O   0  0  0  0  0  0  0  0  0  0  0  0
  -11.2500    1.2990    0.0000 O   0  0  0  0  0  0  0  0  0  0  0  0
  -12.0000    0.0000    0.0000 C   0  0  0  0  0  0  0  0  0  0  0  0
  -13.5000    0.0000    0.0000 C   0  0  0  0  0  0  0  0  0  0  0  0
  -13.5000   -1.5000    0.0000 F   0  0  0  0  0  0  0  0  0  0  0  0
  -13.5000    1.5000    0.0000 F   0  0  0  0  0  0  0  0  0  0  0  0
  -15.0000    0.0000    0.0000 C   0  0  0  0  0  0  0  0  0  0  0  0
  -15.7500    1.2990    0.0000 F   0  0  0  0  0  0  0  0  0  0  0  0
  -15.7500   -1.2990    0.0000 F   0  0  0  0  0  0  0  0  0  0  0  0
   -7.5000    0.0000    0.0000 C   0  0  0  0  0  0  0  0  0  0  0  0
   -6.0000    0.0000    0.0000 C   0  0  0  0  0  0  0  0  0  0  0  0
   -5.2500   -1.2990    0.0000 S   0  0  0  0  0  0  0  0  0  0  0  0
   -6.5490   -2.0490    0.0000 O   0  0  0  0  0  0  0  0  0  0  0  0
   -3.9510   -0.5490    0.0000 O   0  0  0  0  0  0  0  0  0  0  0  0
   -4.5000   -2.5981    0.0000 O   0  0  0  0  0  0  0  0  0  0  0  0
   -5.2500   -3.8971    0.0000 C   0  0  0  0  0  0  0  0  0  0  0  0
   -4.5000   -5.1962    0.0000 C   0  0  0  0  0  0  0  0  0  0  0  0
   -5.7990   -5.9462    0.0000 F   0  0  0  0  0  0  0  0  0  0  0  0
   -3.2010   -4.4462    0.0000 F   0  0  0  0  0  0  0  0  0  0  0  0
   -3.7500   -6.4952    0.0000 C   0  0  0  0  0  0  0  0  0  0  0  0
   -2.2500   -6.4952    0.0000 F   0  0  0  0  0  0  0  0  0  0  0  0
   -4.5000   -7.7942    0.0000 F   0  0  0  0  0  0  0  0  0  0  0  0
   -0.7500    1.2990    0.0000 C   0  0  0  0  0  0  0  0  0  0  0  0
    0.7500    1.2990    0.0000 C   0  0  0  0  0  0  0  0  0  0  0  0
  1  2  1  0
  2  3  1  0
  3  4  1  0
  4  5  1  0
  5  6  1  0
  3  7  1  0
  7  8  2  0
  8  9  1  0
  9 10  2  0
 10 11  1  0
 11 12  2  3
 12 13  1  0
 13 14  2  0
 14 15  1  0
 15 16  2  0
 16 17  1  0
 17 18  2  0
 17 19  2  0
 17 20  1  0
 20 21  1  0
 21 22  1  0
 22 23  1  0
 22 24  1  0
 22 25  1  0
 25 26  1  0
 25 27  1  0
 16 28  1  0
 28 29  2  0
 29 30  1  0
 30 31  2  0
 30 32  2  0
 30 33  1  0
 33 34  1  0
 34 35  1  0
 35 36  1  0
 35 37  1  0
 35 38  1  0
 38 39  1  0
 38 40  1  0
 10 41  1  0
 41 42  2  0
 42  7  1  0
 29 13  1  0
M  END
$$$$

     RDKit          2D

 28 29  0  0  0  0  0  0  0  0999 V2000
    3.0000   -5.1962    0.0000 O   0  0  0  0  0  0  0  0  0  0  0  0
    1.5000   -5.1962    0.0000 C   0  0  0  0  0  0  0  0  0  0  0  0
    0.7500   -3.8971    0.0000 N   0  0  0  0  0  0  0  0  0  0  0  0
    1.5000   -2.5981    0.0000 C   0  0  0  0  0  0  0  0  0  0  0  0
    3.0000   -2.5981    0.0000 O   0  0  0  0  0  0  0  0  0  0  0  0
    0.7500   -1.2990    0.0000 C   0  0  0  0  0  0  0  0  0  0  0  0
    1.5000    0.0000    0.0000 C   0  0  0  0  0  0  0  0  0  0  0  0
    3.0000    0.0000    0.0000 F   0  0  0  0  0  0  0  0  0  0  0  0
    0.7500    1.2990    0.0000 C   0  0  0  0  0  0  0  0  0  0  0  0
   -0.7500    1.2990    0.0000 C   0  0  0  0  0  0  0  0  0  0  0  0
   -1.5000    0.0000    0.0000 C   0  0  0  0  0  0  0  0  0  0  0  0
   -0.7500   -1.2990    0.0000 C   0  0  0  0  0  0  0  0  0  0  0  0
   -1.5000   -2.5981    0.0000 F   0  0  0  0  0  0  0  0  0  0  0  0
    0.7500   -6.4952    0.0000 N   0  0  0  0  0  0  0  0  0  0  0  0
    1.5000   -7.7942    0.0000 C   0  0  0  0  0  0  0  0  0  0  0  0
    0.7500   -9.0933    0.0000 C   0  0  0  0  0  0  0  0  0  0  0  0
    1.5000  -10.3923    0.0000 C   0  0  0  0  0  0  0  0  0  0  0  0
    3.0000  -10.3923    0.0000 C   0  0  0  0  0  0  0  0  0  0  0  0
    3.7500  -11.6913    0.0000 S   0  0  0  0  0  0  0  0  0  0  0  0
    3.0000  -12.9904    0.0000 C   0  0  0  0  0  0  0  0  0  0  0  0
    1.7010  -12.2404    0.0000 F   0  0  0  0  0  0  0  0  0  0  0  0
    2.2500  -14.2894    0.0000 F   0  0  0  0  0  0  0  0  0  0  0  0
    4.2990  -13.7404    0.0000 C   0  0  0  0  0  0  0  0  0  0  0  0
    4.2990  -15.2404    0.0000 F   0  0  0  0  0  0  0  0  0  0  0  0
    5.5981  -12.9904    0.0000 F   0  0  0  0  0  0  0  0  0  0  0  0
    3.7500   -9.0933    0.0000 C   0  0  0  0  0  0  0  0  0  0  0  0
    3.0000   -7.7942    0.0000 C   0  0  0  0  0  0  0  0  0  0  0  0
    3.7500   -6.4952    0.0000 F   0  0  0  0  0  0  0  0  0  0  0  0
  1  2  2  0
  2  3  1  0
  3  4  1  0
  4  5  2  0
  4  6  1  0
  6  7  2  0
  7  8  1  0
  7  9  1  0
  9 10  2  0
 10 11  1  0
 11 12  2  0
 12 13  1  0
  2 14  1  0
 14 15  1  0
 15 16  2  0
 16 17  1  0
 17 18  2  0
 18 19  1  0
 19 20  1  0
 20 21  1  0
 20 22  1  0
 20 23  1  0
 23 24  1  0
 23 25  1  0
 18 26  1  0
 26 27  2  0
 27 28  1  0
 12  6  1  0
 27 15  1  0
M  END
$$$$

     RDKit          2D

 29 30  0  0  0  0  0  0  0  0999 V2000
    3.0000   -5.1962    0.0000 O   0  0  0  0  0  0  0  0  0  0  0  0
    1.5000   -5.1962    0.0000 C   0  0  0  0  0  0  0  0  0  0  0  0
    0.7500   -3.8971    0.0000 N   0  0  0  0  0  0  0  0  0  0  0  0
    1.5000   -2.5981    0.0000 C   0  0  0  0  0  0  0  0  0  0  0  0
    3.0000   -2.5981    0.0000 O   0  0  0  0  0  0  0  0  0  0  0  0
    0.7500   -1.2990    0.0000 C   0  0  0  0  0  0  0  0  0  0  0  0
    1.5000    0.0000    0.0000 C   0  0  0  0  0  0  0  0  0  0  0  0
    3.0000    0.0000    0.0000 F   0  0  0  0  0  0  0  0  0  0  0  0
    0.7500    1.2990    0.0000 C   0  0  0  0  0  0  0  0  0  0  0  0
   -0.7500    1.2990    0.0000 C   0  0  0  0  0  0  0  0  0  0  0  0
   -1.5000    0.0000    0.0000 C   0  0  0  0  0  0  0  0  0  0  0  0
   -0.7500   -1.2990    0.0000 C   0  0  0  0  0  0  0  0  0  0  0  0
   -1.5000   -2.5981    0.0000 F   0  0  0  0  0  0  0  0  0  0  0  0
    0.7500   -6.4952    0.0000 N   0  0  0  0  0  0  0  0  0  0  0  0
    1.5000   -7.7942    0.0000 C   0  0  0  0  0  0  0  0  0  0  0  0
    0.7500   -9.0933    0.0000 C   0  0  0  0  0  0  0  0  0  0  0  0
    1.5000  -10.3923    0.0000 C   0  0  0  0  0  0  0  0  0  0  0  0
    0.7500  -11.6913    0.0000 Cl  0  0  0  0  0  0  0  0  0  0  0  0
    3.0000  -10.3923    0.0000 C   0  0  0  0  0  0  0  0  0  0  0  0
    3.7500  -11.6913    0.0000 S   0  0  0  0  0  0  0  0  0  0  0  0
    5.2500  -11.6913    0.0000 C   0  0  0  0  0  0  0  0  0  0  0  0
    5.2500  -10.1913    0.0000 F   0  0  0  0  0  0  0  0  0  0  0  0
    6.7500  -11.6913    0.0000 F   0  0  0  0  0  0  0  0  0  0  0  0
    5.2500  -13.1913    0.0000 C   0  0  0  0  0  0  0  0  0  0  0  0
    6.5490  -13.9413    0.0000 F   0  0  0  0  0  0  0  0  0  0  0  0
    3.9510  -13.9413    0.0000 F   0  0  0  0  0  0  0  0  0  0  0  0
    3.7500   -9.0933    0.0000 C   0  0  0  0  0  0  0  0  0  0  0  0
    3.0000   -7.7942    0.0000 C   0  0  0  0  0  0  0  0  0  0  0  0
    3.7500   -6.4952    0.0000 Cl  0  0  0  0  0  0  0  0  0  0  0  0
  1  2  2  0
  2  3  1  0
  3  4  1  0
  4  5  2  0
  4  6  1  0
  6  7  2  0
  7  8  1  0
  7  9  1  0
  9 10  2  0
 10 11  1  0
 11 12  2  0
 12 13  1  0
  2 14  1  0
 14 15  1  0
 15 16  2  0
 16 17  1  0
 17 18  1  0
 17 19  2  0
 19 20  1  0
 20 21  1  0
 21 22  1  0
 21 23  1  0
 21 24  1  0
 24 25  1  0
 24 26  1  0
 19 27  1  0
 27 28  2  0
 28 29  1  0
 12  6  1  0
 28 15  1  0
M  END
$$$$

     RDKit          2D

 15 15  0  0  0  0  0  0  0  0999 V2000
    3.0000    0.0000    0.0000 C   0  0  0  0  0  0  0  0  0  0  0  0
    1.5000    0.0000    0.0000 C   0  0  0  0  0  0  0  0  0  0  0  0
    0.7500   -1.2990    0.0000 C   0  0  0  0  0  0  0  0  0  0  0  0
   -0.7500   -1.2990    0.0000 C   0  0  0  0  0  0  0  0  0  0  0  0
   -1.5000   -2.5981    0.0000 S   0  0  0  0  0  0  0  0  0  0  0  0
   -3.0000   -2.5981    0.0000 C   0  0  0  0  0  0  0  0  0  0  0  0
   -3.0000   -1.0981    0.0000 F   0  0  0  0  0  0  0  0  0  0  0  0
   -4.5000   -2.5981    0.0000 F   0  0  0  0  0  0  0  0  0  0  0  0
   -3.0000   -4.0981    0.0000 C   0  0  0  0  0  0  0  0  0  0  0  0
   -4.2990   -4.8481    0.0000 F   0  0  0  0  0  0  0  0  0  0  0  0
   -1.7010   -4.8481    0.0000 F   0  0  0  0  0  0  0  0  0  0  0  0
   -1.5000    0.0000    0.0000 C   0  0  0  0  0  0  0  0  0  0  0  0
   -0.7500    1.2990    0.0000 C   0  0  0  0  0  0  0  0  0  0  0  0
    0.7500    1.2990    0.0000 C   0  0  0  0  0  0  0  0  0  0  0  0
    1.5000    2.5981    0.0000 N   0  0  0  0  0  0  0  0  0  0  0  0
  1  2  1  0
  2  3  2  0
  3  4  1  0
  4  5  1  0
  5  6  1  0
  6  7  1  0
  6  8  1  0
  6  9  1  0
  9 10  1  0
  9 11  1  0
  4 12  2  0
 12 13  1  0
 13 14  2  0
 14 15  1  0
 14  2  1  0
M  END
$$$$

     RDKit          2D

 16 16  0  0  0  0  0  0  0  0999 V2000
    3.0000    0.0000    0.0000 C   0  0  0  0  0  0  0  0  0  0  0  0
    1.5000    0.0000    0.0000 C   0  0  0  0  0  0  0  0  0  0  0  0
    0.7500   -1.2990    0.0000 C   0  0  0  0  0  0  0  0  0  0  0  0
    1.5000   -2.5981    0.0000 N   0  0  0  0  0  0  0  0  0  0  0  0
   -0.7500   -1.2990    0.0000 C   0  0  0  0  0  0  0  0  0  0  0  0
   -1.5000    0.0000    0.0000 C   0  0  0  0  0  0  0  0  0  0  0  0
   -0.7500    1.2990    0.0000 C   0  0  0  0  0  0  0  0  0  0  0  0
   -1.5000    2.5981    0.0000 S   0  0  0  0  0  0  0  0  0  0  0  0
   -3.0000    2.5981    0.0000 C   0  0  0  0  0  0  0  0  0  0  0  0
   -3.0000    1.0981    0.0000 F   0  0  0  0  0  0  0  0  0  0  0  0
   -4.5000    2.5981    0.0000 F   0  0  0  0  0  0  0  0  0  0  0  0
   -3.0000    4.0981    0.0000 C   0  0  0  0  0  0  0  0  0  0  0  0
   -4.2990    4.8481    0.0000 F   0  0  0  0  0  0  0  0  0  0  0  0
   -1.7010    4.8481    0.0000 F   0  0  0  0  0  0  0  0  0  0  0  0
    0.7500    1.2990    0.0000 C   0  0  0  0  0  0  0  0  0  0  0  0
    1.5000    2.5981    0.0000 C   0  0  0  0  0  0  0  0  0  0  0  0
  1  2  1  0
  2  3  2  0
  3  4  1  0
  3  5  1  0
  5  6  2  0
  6  7  1  0
  7  8  1  0
  8  9  1  0
  9 10  1  0
  9 11  1  0
  9 12  1  0
 12 13  1  0
 12 14  1  0
  7 15  2  0
 15 16  1  0
 15  2  1  0
M  END
$$$$

     RDKit          2D

 30 31  0  0  0  0  0  0  0  0999 V2000
    3.0000    0.0000    0.0000 C   0  0  0  0  0  0  0  0  0  0  0  0
    1.5000    0.0000    0.0000 C   0  0  0  0  0  0  0  0  0  0  0  0
    0.7500   -1.2990    0.0000 C   0  0  0  0  0  0  0  0  0  0  0  0
   -0.7500   -1.2990    0.0000 C   0  0  0  0  0  0  0  0  0  0  0  0
   -1.5000   -2.5981    0.0000 N   0  0  0  0  0  0  0  0  0  0  0  0
   -3.0000   -2.5981    0.0000 C   0  0  0  0  0  0  0  0  0  0  0  0
   -3.7500   -1.2990    0.0000 O   0  0  0  0  0  0  0  0  0  0  0  0
   -3.7500   -3.8971    0.0000 N   0  0  0  0  0  0  0  0  0  0  0  0
   -5.2500   -3.8971    0.0000 C   0  0  0  0  0  0  0  0  0  0  0  0
   -6.0000   -2.5981    0.0000 O   0  0  0  0  0  0  0  0  0  0  0  0
   -6.0000   -5.1962    0.0000 C   0  0  0  0  0  0  0  0  0  0  0  0
   -7.5000   -5.1962    0.0000 C   0  0  0  0  0  0  0  0  0  0  0  0
   -8.2500   -3.8971    0.0000 F   0  0  0  0  0  0  0  0  0  0  0  0
   -8.2500   -6.4952    0.0000 C   0  0  0  0  0  0  0  0  0  0  0  0
   -7.5000   -7.7942    0.0000 C   0  0  0  0  0  0  0  0  0  0  0  0
   -6.0000   -7.7942    0.0000 C   0  0  0  0  0  0  0  0  0  0  0  0
   -5.2500   -6.4952    0.0000 C   0  0  0  0  0  0  0  0  0  0  0  0
   -3.7500   -6.4952    0.0000 F   0  0  0  0  0  0  0  0  0  0  0  0
   -1.5000    0.0000    0.0000 C   0  0  0  0  0  0  0  0  0  0  0  0
   -0.7500    1.2990    0.0000 C   0  0  0  0  0  0  0  0  0  0  0  0
    0.7500    1.2990    0.0000 C   0  0  0  0  0  0  0  0  0  0  0  0
    1.5000    2.5981    0.0000 S   0  0  0  0  0  0  0  0  0  0  0  0
    0.1192    3.1841    0.0000 O   0  0  0  0  0  0  0  0  0  0  0  0
    2.7990    1.8481    0.0000 O   0  0  0  0  0  0  0  0  0  0  0  0
    2.2500    3.8971    0.0000 C   0  0  0  0  0  0  0  0  0  0  0  0
    3.5490    3.1471    0.0000 F   0  0  0  0  0  0  0  0  0  0  0  0
    3.0000    5.1962    0.0000 F   0  0  0  0  0  0  0  0  0  0  0  0
    0.9510    4.6471    0.0000 C   0  0  0  0  0  0  0  0  0  0  0  0
    0.9510    6.1471    0.0000 F   0  0  0  0  0  0  0  0  0  0  0  0
   -0.4298    4.0611    0.0000 F   0  0  0  0  0  0  0  0  0  0  0  0
  1  2  1  0
  2  3  2  0
  3  4  1  0
  4  5  1  0
  5  6  1  0
  6  7  2  0
  6  8  1  0
  8  9  1  0
  9 10  2  0
  9 11  1  0
 11 12  2  0
 12 13  1  0
 12 14  1  0
 14 15  2  0
 15 16  1  0
 16 17  2  0
 17 18  1  0
  4 19  2  0
 19 20  1  0
 20 21  2  0
 21 22  1  0
 22 23  2  0
 22 24  2  0
 22 25  1  0
 25 26  1  0
 25 27  1  0
 25 28  1  0
 28 29  1  0
 28 30  1  0
 21  2  1  0
 17 11  1  0
M  END
$$$$

     RDKit          2D

 33 34  0  0  0  0  0  0  0  0999 V2000
   -2.4510  -12.4413    0.0000 C   0  0  0  0  0  0  0  0  0  0  0  0
   -3.7500  -11.6913    0.0000 C   0  0  0  0  0  0  0  0  0  0  0  0
   -3.0000  -10.3923    0.0000 O   0  0  0  0  0  0  0  0  0  0  0  0
   -1.5000  -10.3923    0.0000 C   0  0  0  0  0  0  0  0  0  0  0  0
   -0.7500  -11.6913    0.0000 O   0  0  0  0  0  0  0  0  0  0  0  0
   -0.7500   -9.0933    0.0000 C   0  0  0  0  0  0  0  0  0  0  0  0
   -1.5000   -7.7942    0.0000 C   0  0  0  0  0  0  0  0  0  0  0  0
   -0.7500   -6.4952    0.0000 C   0  0  0  0  0  0  0  0  0  0  0  0
    0.7500   -6.4952    0.0000 C   0  0  0  0  0  0  0  0  0  0  0  0
    1.5000   -5.1962    0.0000 C   0  0  0  0  0  0  0  0  0  0  0  0
    0.7500   -3.8971    0.0000 C   0  0  0  0  0  0  0  0  0  0  0  0
    1.5000   -2.5981    0.0000 C   0  0  0  0  0  0  0  0  0  0  0  0
    3.0000   -2.5981    0.0000 O   0  0  0  0  0  0  0  0  0  0  0  0
    0.7500   -1.2990    0.0000 C   0  0  0  0  0  0  0  0  0  0  0  0
    1.5000    0.0000    0.0000 C   0  0  0  0  0  0  0  0  0  0  0  0
    0.7500    1.2990    0.0000 C   0  0  0  0  0  0  0  0  0  0  0  0
   -0.7500    1.2990    0.0000 C   0  0  0  0  0  0  0  0  0  0  0  0
   -1.5000    0.0000    0.0000 C   0  0  0  0  0  0  0  0  0  0  0  0
   -0.7500   -1.2990    0.0000 C   0  0  0  0  0  0  0  0  0  0  0  0
   -1.5000   -2.5981    0.0000 O   0  0  0  0  0  0  0  0  0  0  0  0
   -0.7500   -3.8971    0.0000 C   0  0  0  0  0  0  0  0  0  0  0  0
   -1.5000   -5.1962    0.0000 O   0  0  0  0  0  0  0  0  0  0  0  0
    1.5000   -7.7942    0.0000 C   0  0  0  0  0  0  0  0  0  0  0  0
    0.7500   -9.0933    0.0000 C   0  0  0  0  0  0  0  0  0  0  0  0
   -5.0490  -10.9413    0.0000 C   0  0  0  0  0  0  0  0  0  0  0  0
   -6.3481  -10.1913    0.0000 F   0  0  0  0  0  0  0  0  0  0  0  0
   -5.5821  -11.6487    0.0000 F   0  0  0  0  0  0  0  0  0  0  0  0
   -4.2990   -9.6423    0.0000 F   0  0  0  0  0  0  0  0  0  0  0  0
   -4.5000  -12.9904    0.0000 C   0  0  0  0  0  0  0  0  0  0  0  0
   -5.2500  -14.2894    0.0000 F   0  0  0  0  0  0  0  0  0  0  0  0
   -5.3153  -12.6443    0.0000 F   0  0  0  0  0  0  0  0  0  0  0  0
   -3.2010  -13.7404    0.0000 F   0  0  0  0  0  0  0  0  0  0  0  0
    4.0000    0.0000    0.0000 Na  0  0  0  0  0 15  0  0  0  0  0  0
  1  2  1  0
  2  3  1  0
  3  4  1  0
  4  5  2  0
  4  6  1  0
  6  7  2  0
  7  8  1  0
  8  9  2  0
  9 10  1  0
 10 11  1  0
 11 12  2  0
 12 13  1  0
 12 14  1  0
 14 15  2  0
 15 16  1  0
 16 17  2  0
 17 18  1  0
 18 19  2  0
 19 20  1  0
 20 21  1  0
 21 22  2  0
  9 23  1  0
 23 24  2  0
  2 25  1  0
 25 26  1  0
 25 27  1  0
 25 28  1  0
  2 29  1  0
 29 30  1  0
 29 31  1  0
 29 32  1  0
 24  6  1  0
 21 11  1  0
 19 14  1  0
M  CHG  2  13  -1  33   1
M  END
$$$$

     RDKit          2D

 22 22  0  0  0  0  0  0  0  0999 V2000
    3.0000    0.0000    0.0000 C   0  0  0  0  0  0  0  0  0  0  0  0
    1.5000    0.0000    0.0000 C   0  0  0  0  0  0  0  0  0  0  0  0
    0.7500   -1.2990    0.0000 C   0  0  0  0  0  0  0  0  0  0  0  0
   -0.7500   -1.2990    0.0000 C   0  0  0  0  0  0  0  0  0  0  0  0
   -1.5000   -2.5981    0.0000 C   0  0  0  0  0  0  0  0  0  0  0  0
   -1.5000    0.0000    0.0000 C   0  0  0  0  0  0  0  0  0  0  0  0
   -3.0000    0.0000    0.0000 C   0  0  0  0  0  0  0  0  0  0  0  0
   -3.7500   -1.2990    0.0000 O   0  0  0  0  0  0  0  0  0  0  0  0
   -3.7500    1.2990    0.0000 C   0  0  0  0  0  0  0  0  0  0  0  0
   -5.2500    1.2990    0.0000 C   0  0  0  0  0  0  0  0  0  0  0  0
   -5.2500   -0.2010    0.0000 O   0  0  0  0  0  0  0  0  0  0  0  0
   -6.7500    1.2990    0.0000 C   0  0  0  0  0  0  0  0  0  0  0  0
   -8.2500    1.2990    0.0000 F   0  0  0  0  0  0  0  0  0  0  0  0
   -6.7500   -0.2010    0.0000 F   0  0  0  0  0  0  0  0  0  0  0  0
   -6.8580    2.1782    0.0000 F   0  0  0  0  0  0  0  0  0  0  0  0
   -5.2500    2.7990    0.0000 C   0  0  0  0  0  0  0  0  0  0  0  0
   -5.2500    4.2990    0.0000 F   0  0  0  0  0  0  0  0  0  0  0  0
   -6.1291    2.9070    0.0000 F   0  0  0  0  0  0  0  0  0  0  0  0
   -3.7500    2.7990    0.0000 F   0  0  0  0  0  0  0  0  0  0  0  0
   -0.7500    1.2990    0.0000 C   0  0  0  0  0  0  0  0  0  0  0  0
   -1.5000    2.5981    0.0000 C   0  0  0  0  0  0  0  0  0  0  0  0
    0.7500    1.2990    0.0000 C   0  0  0  0  0  0  0  0  0  0  0  0
  1  2  1  0
  2  3  2  0
  3  4  1  0
  4  5  1  0
  4  6  2  0
  6  7  1  0
  7  8  2  0
  7  9  1  0
  9 10  1  0
 10 11  1  0
 10 12  1  0
 12 13  1  0
 12 14  1  0
 12 15  1  0
 10 16  1  0
 16 17  1  0
 16 18  1  0
 16 19  1  0
  6 20  1  0
 20 21  1  0
 20 22  2  0
 22  2  1  0
M  END
$$$$

     RDKit          2D

 49 48  0  0  0  0  0  0  0  0999 V2000
   -3.8971   -0.7500    0.0000 O   0  0  0  0  0  0  0  0  0  0  0  0
   -2.5981    0.0000    0.0000 P   0  0  0  0  0  0  0  0  0  0  0  0
   -1.2990    0.7500    0.0000 O   0  0  0  0  0  0  0  0  0  0  0  0
    0.0000    0.0000    0.0000 C   0  0  0  0  0  0  0  0  0  0  0  0
    1.2990    0.7500    0.0000 C   0  0  0  0  0  0  0  0  0  0  0  0
    2.5981   -0.0000    0.0000 C   0  0  0  0  0  0  0  0  0  0  0  0
    3.3481    1.2990    0.0000 F   0  0  0  0  0  0  0  0  0  0  0  0
    1.8481   -1.2990    0.0000 F   0  0  0  0  0  0  0  0  0  0  0  0
    3.8971   -0.7500    0.0000 C   0  0  0  0  0  0  0  0  0  0  0  0
    3.1471   -2.0490    0.0000 F   0  0  0  0  0  0  0  0  0  0  0  0
    4.6471    0.5490    0.0000 F   0  0  0  0  0  0  0  0  0  0  0  0
    5.1962   -1.5000    0.0000 C   0  0  0  0  0  0  0  0  0  0  0  0
    5.9462   -0.2010    0.0000 F   0  0  0  0  0  0  0  0  0  0  0  0
    4.4462   -2.7990    0.0000 F   0  0  0  0  0  0  0  0  0  0  0  0
    6.4952   -2.2500    0.0000 C   0  0  0  0  0  0  0  0  0  0  0  0
    5.7452   -3.5490    0.0000 F   0  0  0  0  0  0  0  0  0  0  0  0
    7.2452   -0.9510    0.0000 F   0  0  0  0  0  0  0  0  0  0  0  0
    7.7942   -3.0000    0.0000 C   0  0  0  0  0  0  0  0  0  0  0  0
    8.5442   -1.7010    0.0000 F   0  0  0  0  0  0  0  0  0  0  0  0
    7.0442   -4.2990    0.0000 F   0  0  0  0  0  0  0  0  0  0  0  0
    9.0933   -3.7500    0.0000 C   0  0  0  0  0  0  0  0  0  0  0  0
    8.3433   -5.0490    0.0000 F   0  0  0  0  0  0  0  0  0  0  0  0
    9.8433   -2.4510    0.0000 F   0  0  0  0  0  0  0  0  0  0  0  0
   10.3923   -4.5000    0.0000 C   0  0  0  0  0  0  0  0  0  0  0  0
   11.1423   -3.2010    0.0000 F   0  0  0  0  0  0  0  0  0  0  0  0
    9.6423   -5.7990    0.0000 F   0  0  0  0  0  0  0  0  0  0  0  0
   11.6913   -5.2500    0.0000 C   0  0  0  0  0  0  0  0  0  0  0  0
   10.9413   -6.5490    0.0000 F   0  0  0  0  0  0  0  0  0  0  0  0
   12.4413   -3.9510    0.0000 F   0  0  0  0  0  0  0  0  0  0  0  0
   12.9904   -6.0000    0.0000 C   0  0  0  0  0  0  0  0  0  0  0  0
   14.2894   -6.7500    0.0000 F   0  0  0  0  0  0  0  0  0  0  0  0
   13.7404   -4.7010    0.0000 F   0  0  0  0  0  0  0  0  0  0  0  0
   12.2404   -7.2990    0.0000 F   0  0  0  0  0  0  0  0  0  0  0  0
   -1.8481   -1.2990    0.0000 O   0  0  0  0  0  0  0  0  0  0  0  0
   -2.5981   -2.5981    0.0000 N   0  0  0  0  0  0  0  0  0  0  0  0
   -1.8481   -3.8971    0.0000 C   0  0  0  0  0  0  0  0  0  0  0  0
   -2.5981   -5.1962    0.0000 C   0  0  0  0  0  0  0  0  0  0  0  0
   -1.8481   -6.4952    0.0000 O   0  0  0  0  0  0  0  0  0  0  0  0
   -4.0981   -2.5981    0.0000 C   0  0  0  0  0  0  0  0  0  0  0  0
   -4.8481   -3.8971    0.0000 C   0  0  0  0  0  0  0  0  0  0  0  0
   -6.3481   -3.8971    0.0000 O   0  0  0  0  0  0  0  0  0  0  0  0
   -3.3481    1.2990    0.0000 O   0  0  0  0  0  0  0  0  0  0  0  0
   -4.8481    1.2990    0.0000 N   0  0  0  0  0  0  0  0  0  0  0  0
   -5.5981    2.5981    0.0000 C   0  0  0  0  0  0  0  0  0  0  0  0
   -7.0981    2.5981    0.0000 C   0  0  0  0  0  0  0  0  0  0  0  0
   -7.8481    3.8971    0.0000 O   0  0  0  0  0  0  0  0  0  0  0  0
   -5.5981    0.0000    0.0000 C   0  0  0  0  0  0  0  0  0  0  0  0
   -7.0981    0.0000    0.0000 C   0  0  0  0  0  0  0  0  0  0  0  0
   -7.8481   -1.2990    0.0000 O   0  0  0  0  0  0  0  0  0  0  0  0
  1  2  2  0
  2  3  1  0
  3  4  1  0
  4  5  1  0
  5  6  1  0
  6  7  1  0
  6  8  1  0
  6  9  1  0
  9 10  1  0
  9 11  1  0
  9 12  1  0
 12 13  1  0
 12 14  1  0
 12 15  1  0
 15 16  1  0
 15 17  1  0
 15 18  1  0
 18 19  1  0
 18 20  1  0
 18 21  1  0
 21 22  1  0
 21 23  1  0
 21 24  1  0
 24 25  1  0
 24 26  1  0
 24 27  1  0
 27 28  1  0
 27 29  1  0
 27 30  1  0
 30 31  1  0
 30 32  1  0
 30 33  1  0
  2 34  1  0
 34 35  1  0
 35 36  1  0
 36 37  1  0
 37 38  1  0
 35 39  1  0
 39 40  1  0
 40 41  1  0
  2 42  1  0
 42 43  1  0
 43 44  1  0
 44 45  1  0
 45 46  1  0
 43 47  1  0
 47 48  1  0
 48 49  1  0
M  END
$$$$

     RDKit          2D

 25 24  0  0  0  0  0  0  0  0999 V2000
    2.5981    3.0000    0.0000 O   0  0  0  0  0  0  0  0  0  0  0  0
    1.2990    2.2500    0.0000 N   0  0  0  0  0  0  0  0  0  0  0  0
    1.2990    0.7500    0.0000 C   0  0  0  0  0  0  0  0  0  0  0  0
    0.0000    0.0000    0.0000 C   0  0  0  0  0  0  0  0  0  0  0  0
   -1.2990    0.7500    0.0000 C   0  0  0  0  0  0  0  0  0  0  0  0
   -0.5490    2.0490    0.0000 O   0  0  0  0  0  0  0  0  0  0  0  0
   -2.5981    1.5000    0.0000 C   0  0  0  0  0  0  0  0  0  0  0  0
   -3.8971    2.2500    0.0000 F   0  0  0  0  0  0  0  0  0  0  0  0
   -1.8481    2.7990    0.0000 F   0  0  0  0  0  0  0  0  0  0  0  0
   -3.1311    0.7926    0.0000 F   0  0  0  0  0  0  0  0  0  0  0  0
   -2.0490   -0.5490    0.0000 C   0  0  0  0  0  0  0  0  0  0  0  0
   -2.7990   -1.8481    0.0000 F   0  0  0  0  0  0  0  0  0  0  0  0
   -2.8644   -0.2030    0.0000 F   0  0  0  0  0  0  0  0  0  0  0  0
   -0.7500   -1.2990    0.0000 F   0  0  0  0  0  0  0  0  0  0  0  0
    2.5981   -0.0000    0.0000 C   0  0  0  0  0  0  0  0  0  0  0  0
    3.8971    0.7500    0.0000 C   0  0  0  0  0  0  0  0  0  0  0  0
    3.1471    2.0490    0.0000 O   0  0  0  0  0  0  0  0  0  0  0  0
    5.1962    1.5000    0.0000 C   0  0  0  0  0  0  0  0  0  0  0  0
    6.4952    2.2500    0.0000 F   0  0  0  0  0  0  0  0  0  0  0  0
    5.7292    0.7926    0.0000 F   0  0  0  0  0  0  0  0  0  0  0  0
    4.4462    2.7990    0.0000 F   0  0  0  0  0  0  0  0  0  0  0  0
    4.6471   -0.5490    0.0000 C   0  0  0  0  0  0  0  0  0  0  0  0
    5.3971   -1.8481    0.0000 F   0  0  0  0  0  0  0  0  0  0  0  0
    5.4624   -0.2030    0.0000 F   0  0  0  0  0  0  0  0  0  0  0  0
    3.3481   -1.2990    0.0000 F   0  0  0  0  0  0  0  0  0  0  0  0
  1  2  1  0
  2  3  2  0
  3  4  1  0
  4  5  1  0
  5  6  1  0
  5  7  1  0
  7  8  1  0
  7  9  1  0
  7 10  1  0
  5 11  1  0
 11 12  1  0
 11 13  1  0
 11 14  1  0
  3 15  1  0
 15 16  1  0
 16 17  1  0
 16 18  1  0
 18 19  1  0
 18 20  1  0
 18 21  1  0
 16 22  1  0
 22 23  1  0
 22 24  1  0
 22 25  1  0
M  END
$$$$

     RDKit          2D

 14 13  0  0  0  0  0  0  0  0999 V2000
    0.0000    0.0000    0.0000 C   0  0  0  0  0  0  0  0  0  0  0  0
    1.2990    0.7500    0.0000 C   0  0  0  0  0  0  0  0  0  0  0  0
    1.2990    2.2500    0.0000 O   0  0  0  0  0  0  0  0  0  0  0  0
    2.5981   -0.0000    0.0000 C   0  0  0  0  0  0  0  0  0  0  0  0
    3.8971    0.7500    0.0000 C   0  0  0  0  0  0  0  0  0  0  0  0
    3.1471    2.0490    0.0000 Cl  0  0  0  0  0  0  0  0  0  0  0  0
    5.1962    1.5000    0.0000 C   0  0  0  0  0  0  0  0  0  0  0  0
    6.4952    2.2500    0.0000 F   0  0  0  0  0  0  0  0  0  0  0  0
    4.4462    2.7990    0.0000 F   0  0  0  0  0  0  0  0  0  0  0  0
    5.7292    0.7926    0.0000 F   0  0  0  0  0  0  0  0  0  0  0  0
    4.6471   -0.5490    0.0000 C   0  0  0  0  0  0  0  0  0  0  0  0
    5.3971   -1.8481    0.0000 F   0  0  0  0  0  0  0  0  0  0  0  0
    5.4624   -0.2030    0.0000 F   0  0  0  0  0  0  0  0  0  0  0  0
    3.3481   -1.2990    0.0000 F   0  0  0  0  0  0  0  0  0  0  0  0
  1  2  1  0
  2  3  2  0
  2  4  1  0
  4  5  1  0
  5  6  1  0
  5  7  1  0
  7  8  1  0
  7  9  1  0
  7 10  1  0
  5 11  1  0
 11 12  1  0
 11 13  1  0
 11 14  1  0
M  END
$$$$

     RDKit          2D

 33 34  0  0  0  0  0  0  0  0999 V2000
   -0.1326   -5.7037    0.0000 O   0  0  0  0  0  0  0  0  0  0  0  0
    0.4775   -7.0740    0.0000 C   0  0  0  0  0  0  0  0  0  0  0  0
    1.8478   -6.4639    0.0000 C   0  0  0  0  0  0  0  0  0  0  0  0
    2.0046   -4.9721    0.0000 C   0  0  0  0  0  0  0  0  0  0  0  0
    3.3037   -4.2221    0.0000 C   0  0  0  0  0  0  0  0  0  0  0  0
    2.9918   -2.7549    0.0000 C   0  0  0  0  0  0  0  0  0  0  0  0
    3.9955   -1.6402    0.0000 C   0  0  0  0  0  0  0  0  0  0  0  0
    5.4627   -1.9520    0.0000 C   0  0  0  0  0  0  0  0  0  0  0  0
    5.1508   -3.4192    0.0000 O   0  0  0  0  0  0  0  0  0  0  0  0
    6.9299   -2.2639    0.0000 C   0  0  0  0  0  0  0  0  0  0  0  0
    8.3971   -2.5758    0.0000 F   0  0  0  0  0  0  0  0  0  0  0  0
    7.2183   -1.4264    0.0000 F   0  0  0  0  0  0  0  0  0  0  0  0
    6.6181   -3.7311    0.0000 F   0  0  0  0  0  0  0  0  0  0  0  0
    5.7746   -0.4848    0.0000 C   0  0  0  0  0  0  0  0  0  0  0  0
    6.0864    0.9824    0.0000 F   0  0  0  0  0  0  0  0  0  0  0  0
    6.6569   -0.5620    0.0000 F   0  0  0  0  0  0  0  0  0  0  0  0
    4.3073   -0.1729    0.0000 F   0  0  0  0  0  0  0  0  0  0  0  0
    1.5000   -2.5981    0.0000 N   0  0  0  0  0  0  0  0  0  0  0  0
    0.7500   -1.2990    0.0000 C   0  0  0  0  0  0  0  0  0  0  0  0
    1.5000    0.0000    0.0000 C   0  0  0  0  0  0  0  0  0  0  0  0
    0.7500    1.2990    0.0000 C   0  0  0  0  0  0  0  0  0  0  0  0
   -0.7500    1.2990    0.0000 C   0  0  0  0  0  0  0  0  0  0  0  0
   -1.5000    0.0000    0.0000 C   0  0  0  0  0  0  0  0  0  0  0  0
   -0.7500   -1.2990    0.0000 C   0  0  0  0  0  0  0  0  0  0  0  0
    0.8899   -3.9684    0.0000 N   0  0  0  0  0  0  0  0  0  0  0  0
   -0.8928   -7.6841    0.0000 C   0  0  0  0  0  0  0  0  0  0  0  0
   -2.2631   -8.2942    0.0000 F   0  0  0  0  0  0  0  0  0  0  0  0
   -1.5029   -6.3138    0.0000 F   0  0  0  0  0  0  0  0  0  0  0  0
   -0.6339   -8.5311    0.0000 F   0  0  0  0  0  0  0  0  0  0  0  0
    1.0876   -8.4443    0.0000 C   0  0  0  0  0  0  0  0  0  0  0  0
    1.6977   -9.8146    0.0000 F   0  0  0  0  0  0  0  0  0  0  0  0
    0.3284   -8.9005    0.0000 F   0  0  0  0  0  0  0  0  0  0  0  0
    2.4579   -7.8342    0.0000 F   0  0  0  0  0  0  0  0  0  0  0  0
  1  2  1  0
  2  3  1  0
  3  4  1  0
  4  5  1  0
  5  6  2  0
  6  7  1  0
  7  8  1  0
  8  9  1  0
  8 10  1  0
 10 11  1  0
 10 12  1  0
 10 13  1  0
  8 14  1  0
 14 15  1  0
 14 16  1  0
 14 17  1  0
  6 18  1  0
 18 19  1  0
 19 20  2  0
 20 21  1  0
 21 22  2  0
 22 23  1  0
 23 24  2  0
 18 25  1  0
  2 26  1  0
 26 27  1  0
 26 28  1  0
 26 29  1  0
  2 30  1  0
 30 31  1  0
 30 32  1  0
 30 33  1  0
 25  4  2  0
 24 19  1  0
M  END
$$$$

     RDKit          2D

 39 39  0  0  0  0  0  0  0  0999 V2000
    5.4028    1.1979    0.0000 O   0  0  0  0  0  0  0  0  0  0  0  0
    4.5000    0.0000    0.0000 C   0  0  0  0  0  0  0  0  0  0  0  0
    3.0000    0.0000    0.0000 C   0  0  0  0  0  0  0  0  0  0  0  0
    1.5000    0.0000    0.0000 C   0  0  0  0  0  0  0  0  0  0  0  0
    0.7500   -1.2990    0.0000 C   0  0  0  0  0  0  0  0  0  0  0  0
   -0.7500   -1.2990    0.0000 C   0  0  0  0  0  0  0  0  0  0  0  0
   -1.5000   -2.5981    0.0000 C   0  0  0  0  0  0  0  0  0  0  0  0
   -2.2500   -3.8971    0.0000 C   0  0  0  0  0  0  0  0  0  0  0  0
   -1.6639   -5.2779    0.0000 O   0  0  0  0  0  0  0  0  0  0  0  0
   -2.7990   -1.8481    0.0000 C   0  0  0  0  0  0  0  0  0  0  0  0
   -4.0981   -1.0981    0.0000 F   0  0  0  0  0  0  0  0  0  0  0  0
   -3.5490   -3.1471    0.0000 F   0  0  0  0  0  0  0  0  0  0  0  0
   -2.4270   -0.5504    0.0000 F   0  0  0  0  0  0  0  0  0  0  0  0
   -0.2010   -3.3481    0.0000 C   0  0  0  0  0  0  0  0  0  0  0  0
    1.0981   -4.0981    0.0000 F   0  0  0  0  0  0  0  0  0  0  0  0
   -0.7870   -4.7288    0.0000 F   0  0  0  0  0  0  0  0  0  0  0  0
    0.7369   -2.3770    0.0000 F   0  0  0  0  0  0  0  0  0  0  0  0
   -1.5000    0.0000    0.0000 N   0  0  0  0  0  0  0  0  0  0  0  0
   -0.7500    1.2990    0.0000 C   0  0  0  0  0  0  0  0  0  0  0  0
   -1.5000    2.5981    0.0000 C   0  0  0  0  0  0  0  0  0  0  0  0
   -2.2500    3.8971    0.0000 C   0  0  0  0  0  0  0  0  0  0  0  0
   -3.7388    4.0800    0.0000 O   0  0  0  0  0  0  0  0  0  0  0  0
   -0.2010    3.3481    0.0000 C   0  0  0  0  0  0  0  0  0  0  0  0
    1.0981    4.0981    0.0000 F   0  0  0  0  0  0  0  0  0  0  0  0
   -0.9510    4.6471    0.0000 F   0  0  0  0  0  0  0  0  0  0  0  0
    0.7369    2.3770    0.0000 F   0  0  0  0  0  0  0  0  0  0  0  0
   -2.7990    1.8481    0.0000 C   0  0  0  0  0  0  0  0  0  0  0  0
   -4.0981    1.0981    0.0000 F   0  0  0  0  0  0  0  0  0  0  0  0
   -3.7018    3.0460    0.0000 F   0  0  0  0  0  0  0  0  0  0  0  0
   -2.4270    0.5504    0.0000 F   0  0  0  0  0  0  0  0  0  0  0  0
    0.7500    1.2990    0.0000 C   0  0  0  0  0  0  0  0  0  0  0  0
    3.0000   -1.5000    0.0000 C   0  0  0  0  0  0  0  0  0  0  0  0
    3.0000   -3.0000    0.0000 F   0  0  0  0  0  0  0  0  0  0  0  0
    4.5000   -1.5000    0.0000 F   0  0  0  0  0  0  0  0  0  0  0  0
    1.6901   -1.8267    0.0000 F   0  0  0  0  0  0  0  0  0  0  0  0
    3.0000    1.5000    0.0000 C   0  0  0  0  0  0  0  0  0  0  0  0
    3.0000    3.0000    0.0000 F   0  0  0  0  0  0  0  0  0  0  0  0
    4.4888    1.6828    0.0000 F   0  0  0  0  0  0  0  0  0  0  0  0
    1.6901    1.8267    0.0000 F   0  0  0  0  0  0  0  0  0  0  0  0
  1  2  1  0
  2  3  1  0
  3  4  1  0
  4  5  2  0
  5  6  1  0
  6  7  1  0
  7  8  1  0
  8  9  1  0
  7 10  1  0
 10 11  1  0
 10 12  1  0
 10 13  1  0
  7 14  1  0
 14 15  1  0
 14 16  1  0
 14 17  1  0
  6 18  2  0
 18 19  1  0
 19 20  1  0
 20 21  1  0
 21 22  1  0
 20 23  1  0
 23 24  1  0
 23 25  1  0
 23 26  1  0
 20 27  1  0
 27 28  1  0
 27 29  1  0
 27 30  1  0
 19 31  2  0
  3 32  1  0
 32 33  1  0
 32 34  1  0
 32 35  1  0
  3 36  1  0
 36 37  1  0
 36 38  1  0
 36 39  1  0
 31  4  1  0
M  END
$$$$

     RDKit          2D

 24 25  0  0  0  0  0  0  0  0999 V2000
    3.7500   -1.2990    0.0000 C   0  0  0  0  0  0  0  0  0  0  0  0
    3.0000    0.0000    0.0000 N   0  0  0  0  0  0  0  0  0  0  0  0
    3.7500    1.2990    0.0000 C   0  0  0  0  0  0  0  0  0  0  0  0
    1.5000    0.0000    0.0000 C   0  0  0  0  0  0  0  0  0  0  0  0
    0.7500   -1.2990    0.0000 C   0  0  0  0  0  0  0  0  0  0  0  0
   -0.7500   -1.2990    0.0000 C   0  0  0  0  0  0  0  0  0  0  0  0
   -1.5000    0.0000    0.0000 C   0  0  0  0  0  0  0  0  0  0  0  0
   -3.0000    0.0000    0.0000 N   0  0  0  0  0  0  0  0  0  0  0  0
   -3.7500    1.2990    0.0000 C   0  0  0  0  0  0  0  0  0  0  0  0
   -5.2500    1.2990    0.0000 C   0  0  0  0  0  0  0  0  0  0  0  0
   -6.0000    2.5981    0.0000 C   0  0  0  0  0  0  0  0  0  0  0  0
   -4.7010    3.3481    0.0000 O   0  0  0  0  0  0  0  0  0  0  0  0
   -6.7500    3.8971    0.0000 C   0  0  0  0  0  0  0  0  0  0  0  0
   -7.5000    5.1962    0.0000 F   0  0  0  0  0  0  0  0  0  0  0  0
   -5.4510    4.6471    0.0000 F   0  0  0  0  0  0  0  0  0  0  0  0
   -7.5653    3.5511    0.0000 F   0  0  0  0  0  0  0  0  0  0  0  0
   -7.2990    1.8481    0.0000 C   0  0  0  0  0  0  0  0  0  0  0  0
   -8.5981    1.0981    0.0000 F   0  0  0  0  0  0  0  0  0  0  0  0
   -7.8321    2.5554    0.0000 F   0  0  0  0  0  0  0  0  0  0  0  0
   -6.5490    0.5490    0.0000 F   0  0  0  0  0  0  0  0  0  0  0  0
   -3.0000    2.5981    0.0000 C   0  0  0  0  0  0  0  0  0  0  0  0
   -1.5000    2.5981    0.0000 C   0  0  0  0  0  0  0  0  0  0  0  0
   -0.7500    1.2990    0.0000 C   0  0  0  0  0  0  0  0  0  0  0  0
    0.7500    1.2990    0.0000 C   0  0  0  0  0  0  0  0  0  0  0  0
  1  2  1  0
  2  3  1  0
  2  4  1  0
  4  5  2  0
  5  6  1  0
  6  7  2  0
  7  8  1  0
  8  9  2  0
  9 10  1  0
 10 11  1  0
 11 12  1  0
 11 13  1  0
 13 14  1  0
 13 15  1  0
 13 16  1  0
 11 17  1  0
 17 18  1  0
 17 19  1  0
 17 20  1  0
  9 21  1  0
 21 22  2  0
 22 23  1  0
 23 24  2  0
 24  4  1  0
 23  7  1  0
M  END
$$$$

     RDKit          2D

 31 32  0  0  0  0  0  0  0  0999 V2000
   -2.1595   -1.8121    0.0000 F   0  0  0  0  0  0  0  0  0  0  0  0
   -0.7500   -1.2990    0.0000 C   0  0  0  0  0  0  0  0  0  0  0  0
   -0.4895   -2.7762    0.0000 F   0  0  0  0  0  0  0  0  0  0  0  0
    0.7500   -1.2990    0.0000 O   0  0  0  0  0  0  0  0  0  0  0  0
    1.5000    0.0000    0.0000 C   0  0  0  0  0  0  0  0  0  0  0  0
    2.6491   -0.9642    0.0000 F   0  0  0  0  0  0  0  0  0  0  0  0
    2.6491    0.9642    0.0000 F   0  0  0  0  0  0  0  0  0  0  0  0
    0.7500    1.2990    0.0000 C   0  0  0  0  0  0  0  0  0  0  0  0
    2.1595    1.8121    0.0000 F   0  0  0  0  0  0  0  0  0  0  0  0
    0.8057    2.0943    0.0000 F   0  0  0  0  0  0  0  0  0  0  0  0
   -0.7500    1.2990    0.0000 N   0  0  0  0  0  0  0  0  0  0  0  0
   -1.5000    2.5981    0.0000 C   0  0  0  0  0  0  0  0  0  0  0  0
   -2.7580    1.7812    0.0000 F   0  0  0  0  0  0  0  0  0  0  0  0
   -0.0905    3.1111    0.0000 C   0  0  0  0  0  0  0  0  0  0  0  0
    0.7953    3.1111    0.0000 F   0  0  0  0  0  0  0  0  0  0  0  0
    0.3099    2.2121    0.0000 F   0  0  0  0  0  0  0  0  0  0  0  0
    0.1700    4.5883    0.0000 C   0  0  0  0  0  0  0  0  0  0  0  0
    0.9200    5.8874    0.0000 F   0  0  0  0  0  0  0  0  0  0  0  0
    1.5796    4.0753    0.0000 F   0  0  0  0  0  0  0  0  0  0  0  0
   -0.9791    5.5525    0.0000 C   0  0  0  0  0  0  0  0  0  0  0  0
   -1.7291    6.8515    0.0000 F   0  0  0  0  0  0  0  0  0  0  0  0
    0.1700    6.5167    0.0000 F   0  0  0  0  0  0  0  0  0  0  0  0
   -2.3886    5.0395    0.0000 C   0  0  0  0  0  0  0  0  0  0  0  0
   -3.8886    5.0395    0.0000 F   0  0  0  0  0  0  0  0  0  0  0  0
   -2.6491    6.5167    0.0000 F   0  0  0  0  0  0  0  0  0  0  0  0
   -2.6491    3.5623    0.0000 C   0  0  0  0  0  0  0  0  0  0  0  0
   -3.3991    2.2632    0.0000 F   0  0  0  0  0  0  0  0  0  0  0  0
   -4.0586    4.0753    0.0000 F   0  0  0  0  0  0  0  0  0  0  0  0
   -1.5000    0.0000    0.0000 C   0  0  0  0  0  0  0  0  0  0  0  0
   -2.7580    0.8169    0.0000 F   0  0  0  0  0  0  0  0  0  0  0  0
   -2.6491   -0.9642    0.0000 F   0  0  0  0  0  0  0  0  0  0  0  0
  1  2  1  0
  2  3  1  0
  2  4  1  0
  4  5  1  0
  5  6  1  0
  5  7  1  0
  5  8  1  0
  8  9  1  0
  8 10  1  0
  8 11  1  0
 11 12  1  0
 12 13  1  0
 12 14  1  0
 14 15  1  0
 14 16  1  0
 14 17  1  0
 17 18  1  0
 17 19  1  0
 17 20  1  0
 20 21  1  0
 20 22  1  0
 20 23  1  0
 23 24  1  0
 23 25  1  0
 23 26  1  0
 26 27  1  0
 26 28  1  0
 11 29  1  0
 29 30  1  0
 29 31  1  0
 29  2  1  0
 26 12  1  0
M  END
$$$$

     RDKit          2D

157156  0  0  0  0  0  0  0  0999 V2000
  -17.2500   -9.0933    0.0000 O   0  0  0  0  0  0  0  0  0  0  0  0
  -15.7500   -9.0933    0.0000 O   0  0  0  0  0  0  0  0  0  0  0  0
  -15.0000   -7.7942    0.0000 O   0  0  0  0  0  0  0  0  0  0  0  0
  -13.5000   -7.7942    0.0000 O   0  0  0  0  0  0  0  0  0  0  0  0
  -12.7500   -6.4952    0.0000 O   0  0  0  0  0  0  0  0  0  0  0  0
  -11.2500   -6.4952    0.0000 O   0  0  0  0  0  0  0  0  0  0  0  0
  -10.5000   -5.1962    0.0000 O   0  0  0  0  0  0  0  0  0  0  0  0
   -9.0000   -5.1962    0.0000 O   0  0  0  0  0  0  0  0  0  0  0  0
   -8.2500   -3.8971    0.0000 O   0  0  0  0  0  0  0  0  0  0  0  0
   -6.7500   -3.8971    0.0000 O   0  0  0  0  0  0  0  0  0  0  0  0
   -6.0000   -2.5981    0.0000 O   0  0  0  0  0  0  0  0  0  0  0  0
   -4.5000   -2.5981    0.0000 O   0  0  0  0  0  0  0  0  0  0  0  0
   -3.7500   -1.2990    0.0000 O   0  0  0  0  0  0  0  0  0  0  0  0
   -2.2500   -1.2990    0.0000 O   0  0  0  0  0  0  0  0  0  0  0  0
   -1.5000    0.0000    0.0000 O   0  0  0  0  0  0  0  0  0  0  0  0
    0.0000    0.0000    0.0000 C   0  0  0  0  0  0  0  0  0  0  0  0
    0.0000    1.5000    0.0000 F   0  0  0  0  0  0  0  0  0  0  0  0
   -0.0000   -1.5000    0.0000 F   0  0  0  0  0  0  0  0  0  0  0  0
    1.5000    0.0000    0.0000 C   0  0  0  0  0  0  0  0  0  0  0  0
    1.5000    1.5000    0.0000 F   0  0  0  0  0  0  0  0  0  0  0  0
    1.5000   -1.5000    0.0000 F   0  0  0  0  0  0  0  0  0  0  0  0
    3.0000    0.0000    0.0000 C   0  0  0  0  0  0  0  0  0  0  0  0
    3.0000   -1.5000    0.0000 F   0  0  0  0  0  0  0  0  0  0  0  0
    3.0000    1.5000    0.0000 F   0  0  0  0  0  0  0  0  0  0  0  0
    4.5000    0.0000    0.0000 C   0  0  0  0  0  0  0  0  0  0  0  0
    4.5000    1.5000    0.0000 F   0  0  0  0  0  0  0  0  0  0  0  0
    4.5000   -1.5000    0.0000 F   0  0  0  0  0  0  0  0  0  0  0  0
    6.0000    0.0000    0.0000 C   0  0  0  0  0  0  0  0  0  0  0  0
    6.0000   -1.5000    0.0000 F   0  0  0  0  0  0  0  0  0  0  0  0
    6.0000    1.5000    0.0000 F   0  0  0  0  0  0  0  0  0  0  0  0
    7.5000    0.0000    0.0000 C   0  0  0  0  0  0  0  0  0  0  0  0
    7.5000    1.5000    0.0000 F   0  0  0  0  0  0  0  0  0  0  0  0
    7.5000   -1.5000    0.0000 F   0  0  0  0  0  0  0  0  0  0  0  0
    9.0000    0.0000    0.0000 C   0  0  0  0  0  0  0  0  0  0  0  0
    9.0000   -1.5000    0.0000 F   0  0  0  0  0  0  0  0  0  0  0  0
    9.0000    1.5000    0.0000 F   0  0  0  0  0  0  0  0  0  0  0  0
   10.5000    0.0000    0.0000 C   0  0  0  0  0  0  0  0  0  0  0  0
   10.5000    1.5000    0.0000 F   0  0  0  0  0  0  0  0  0  0  0  0
   10.5000   -1.5000    0.0000 F   0  0  0  0  0  0  0  0  0  0  0  0
   12.0000    0.0000    0.0000 C   0  0  0  0  0  0  0  0  0  0  0  0
   12.0000   -1.5000    0.0000 F   0  0  0  0  0  0  0  0  0  0  0  0
   12.0000    1.5000    0.0000 F   0  0  0  0  0  0  0  0  0  0  0  0
   13.5000    0.0000    0.0000 C   0  0  0  0  0  0  0  0  0  0  0  0
   13.5000    1.5000    0.0000 F   0  0  0  0  0  0  0  0  0  0  0  0
   13.5000   -1.5000    0.0000 F   0  0  0  0  0  0  0  0  0  0  0  0
   15.0000    0.0000    0.0000 C   0  0  0  0  0  0  0  0  0  0  0  0
   15.0000   -1.5000    0.0000 F   0  0  0  0  0  0  0  0  0  0  0  0
   15.0000    1.5000    0.0000 F   0  0  0  0  0  0  0  0  0  0  0  0
   16.5000    0.0000    0.0000 C   0  0  0  0  0  0  0  0  0  0  0  0
   16.5000    1.5000    0.0000 F   0  0  0  0  0  0  0  0  0  0  0  0
   16.5000   -1.5000    0.0000 F   0  0  0  0  0  0  0  0  0  0  0  0
   18.0000    0.0000    0.0000 C   0  0  0  0  0  0  0  0  0  0  0  0
   18.0000   -1.5000    0.0000 F   0  0  0  0  0  0  0  0  0  0  0  0
   18.0000    1.5000    0.0000 F   0  0  0  0  0  0  0  0  0  0  0  0
   19.5000    0.0000    0.0000 C   0  0  0  0  0  0  0  0  0  0  0  0
   19.5000    1.5000    0.0000 F   0  0  0  0  0  0  0  0  0  0  0  0
   19.5000   -1.5000    0.0000 F   0  0  0  0  0  0  0  0  0  0  0  0
   21.0000    0.0000    0.0000 C   0  0  0  0  0  0  0  0  0  0  0  0
   21.0000   -1.5000    0.0000 F   0  0  0  0  0  0  0  0  0  0  0  0
   21.0000    1.5000    0.0000 F   0  0  0  0  0  0  0  0  0  0  0  0
   22.5000    0.0000    0.0000 C   0  0  0  0  0  0  0  0  0  0  0  0
   22.5000    1.5000    0.0000 F   0  0  0  0  0  0  0  0  0  0  0  0
   22.5000   -1.5000    0.0000 F   0  0  0  0  0  0  0  0  0  0  0  0
   24.0000    0.0000    0.0000 C   0  0  0  0  0  0  0  0  0  0  0  0
   24.0000   -1.5000    0.0000 F   0  0  0  0  0  0  0  0  0  0  0  0
   24.0000    1.5000    0.0000 F   0  0  0  0  0  0  0  0  0  0  0  0
   25.5000    0.0000    0.0000 C   0  0  0  0  0  0  0  0  0  0  0  0
   25.5000    1.5000    0.0000 F   0  0  0  0  0  0  0  0  0  0  0  0
   25.5000   -1.5000    0.0000 F   0  0  0  0  0  0  0  0  0  0  0  0
   27.0000    0.0000    0.0000 C   0  0  0  0  0  0  0  0  0  0  0  0
   27.0000   -1.5000    0.0000 F   0  0  0  0  0  0  0  0  0  0  0  0
   27.0000    1.5000    0.0000 F   0  0  0  0  0  0  0  0  0  0  0  0
   28.5000    0.0000    0.0000 C   0  0  0  0  0  0  0  0  0  0  0  0
   28.5000    1.5000    0.0000 F   0  0  0  0  0  0  0  0  0  0  0  0
   28.5000   -1.5000    0.0000 F   0  0  0  0  0  0  0  0  0  0  0  0
   30.0000    0.0000    0.0000 C   0  0  0  0  0  0  0  0  0  0  0  0
   30.0000   -1.5000    0.0000 F   0  0  0  0  0  0  0  0  0  0  0  0
   30.0000    1.5000    0.0000 F   0  0  0  0  0  0  0  0  0  0  0  0
   31.5000    0.0000    0.0000 C   0  0  0  0  0  0  0  0  0  0  0  0
   31.5000    1.5000    0.0000 F   0  0  0  0  0  0  0  0  0  0  0  0
   31.5000   -1.5000    0.0000 F   0  0  0  0  0  0  0  0  0  0  0  0
   33.0000    0.0000    0.0000 C   0  0  0  0  0  0  0  0  0  0  0  0
   33.0000   -1.5000    0.0000 F   0  0  0  0  0  0  0  0  0  0  0  0
   33.0000    1.5000    0.0000 F   0  0  0  0  0  0  0  0  0  0  0  0
   34.5000    0.0000    0.0000 C   0  0  0  0  0  0  0  0  0  0  0  0
   34.5000   -1.5000    0.0000 F   0  0  0  0  0  0  0  0  0  0  0  0
   34.5000    1.5000    0.0000 F   0  0  0  0  0  0  0  0  0  0  0  0
   36.0000    0.0000    0.0000 C   0  0  0  0  0  0  0  0  0  0  0  0
   36.0000    1.5000    0.0000 F   0  0  0  0  0  0  0  0  0  0  0  0
   36.0000   -1.5000    0.0000 F   0  0  0  0  0  0  0  0  0  0  0  0
   37.5000    0.0000    0.0000 C   0  0  0  0  0  0  0  0  0  0  0  0
   37.5000   -1.5000    0.0000 F   0  0  0  0  0  0  0  0  0  0  0  0
   37.5000    1.5000    0.0000 F   0  0  0  0  0  0  0  0  0  0  0  0
   39.0000    0.0000    0.0000 C   0  0  0  0  0  0  0  0  0  0  0  0
   39.0000    1.5000    0.0000 F   0  0  0  0  0  0  0  0  0  0  0  0
   39.0000   -1.5000    0.0000 F   0  0  0  0  0  0  0  0  0  0  0  0
   40.5000    0.0000    0.0000 C   0  0  0  0  0  0  0  0  0  0  0  0
   40.5000   -1.5000    0.0000 F   0  0  0  0  0  0  0  0  0  0  0  0
   40.5000    1.5000    0.0000 F   0  0  0  0  0  0  0  0  0  0  0  0
   42.0000    0.0000    0.0000 C   0  0  0  0  0  0  0  0  0  0  0  0
   42.0000    1.5000    0.0000 F   0  0  0  0  0  0  0  0  0  0  0  0
   42.0000   -1.5000    0.0000 F   0  0  0  0  0  0  0  0  0  0  0  0
   43.5000    0.0000    0.0000 C   0  0  0  0  0  0  0  0  0  0  0  0
   43.5000   -1.5000    0.0000 F   0  0  0  0  0  0  0  0  0  0  0  0
   43.5000    1.5000    0.0000 F   0  0  0  0  0  0  0  0  0  0  0  0
   45.0000    0.0000    0.0000 C   0  0  0  0  0  0  0  0  0  0  0  0
   45.0000    1.5000    0.0000 F   0  0  0  0  0  0  0  0  0  0  0  0
   45.0000   -1.5000    0.0000 F   0  0  0  0  0  0  0  0  0  0  0  0
   46.5000    0.0000    0.0000 C   0  0  0  0  0  0  0  0  0  0  0  0
   46.5000   -1.5000    0.0000 F   0  0  0  0  0  0  0  0  0  0  0  0
   46.5000    1.5000    0.0000 F   0  0  0  0  0  0  0  0  0  0  0  0
   48.0000    0.0000    0.0000 C   0  0  0  0  0  0  0  0  0  0  0  0
   48.0000    1.5000    0.0000 F   0  0  0  0  0  0  0  0  0  0  0  0
   48.0000   -1.5000    0.0000 F   0  0  0  0  0  0  0  0  0  0  0  0
   49.5000    0.0000    0.0000 C   0  0  0  0  0  0  0  0  0  0  0  0
   49.5000   -1.5000    0.0000 F   0  0  0  0  0  0  0  0  0  0  0  0
   49.5000    1.5000    0.0000 F   0  0  0  0  0  0  0  0  0  0  0  0
   51.0000    0.0000    0.0000 C   0  0  0  0  0  0  0  0  0  0  0  0
   51.0000    1.5000    0.0000 F   0  0  0  0  0  0  0  0  0  0  0  0
   51.0000   -1.5000    0.0000 F   0  0  0  0  0  0  0  0  0  0  0  0
   52.5000    0.0000    0.0000 C   0  0  0  0  0  0  0  0  0  0  0  0
   52.5000   -1.5000    0.0000 F   0  0  0  0  0  0  0  0  0  0  0  0
   52.5000    1.5000    0.0000 F   0  0  0  0  0  0  0  0  0  0  0  0
   54.0000    0.0000    0.0000 C   0  0  0  0  0  0  0  0  0  0  0  0
   54.0000    1.5000    0.0000 F   0  0  0  0  0  0  0  0  0  0  0  0
   54.0000   -1.5000    0.0000 F   0  0  0  0  0  0  0  0  0  0  0  0
   55.5000    0.0000    0.0000 C   0  0  0  0  0  0  0  0  0  0  0  0
   55.5000   -1.5000    0.0000 F   0  0  0  0  0  0  0  0  0  0  0  0
   55.5000    1.5000    0.0000 F   0  0  0  0  0  0  0  0  0  0  0  0
   57.0000    0.0000    0.0000 C   0  0  0  0  0  0  0  0  0  0  0  0
   57.0000    1.5000    0.0000 F   0  0  0  0  0  0  0  0  0  0  0  0
   57.0000   -1.5000    0.0000 F   0  0  0  0  0  0  0  0  0  0  0  0
   58.5000    0.0000    0.0000 C   0  0  0  0  0  0  0  0  0  0  0  0
   58.5000   -1.5000    0.0000 F   0  0  0  0  0  0  0  0  0  0  0  0
   58.5000    1.5000    0.0000 F   0  0  0  0  0  0  0  0  0  0  0  0
   60.0000    0.0000    0.0000 C   0  0  0  0  0  0  0  0  0  0  0  0
   60.0000    1.5000    0.0000 F   0  0  0  0  0  0  0  0  0  0  0  0
   60.0000   -1.5000    0.0000 F   0  0  0  0  0  0  0  0  0  0  0  0
   61.5000    0.0000    0.0000 C   0  0  0  0  0  0  0  0  0  0  0  0
   61.5000   -1.5000    0.0000 F   0  0  0  0  0  0  0  0  0  0  0  0
   61.5000    1.5000    0.0000 F   0  0  0  0  0  0  0  0  0  0  0  0
   63.0000    0.0000    0.0000 C   0  0  0  0  0  0  0  0  0  0  0  0
   63.0000    1.5000    0.0000 F   0  0  0  0  0  0  0  0  0  0  0  0
   63.0000   -1.5000    0.0000 F   0  0  0  0  0  0  0  0  0  0  0  0
   64.5000    0.0000    0.0000 C   0  0  0  0  0  0  0  0  0  0  0  0
   64.5000   -1.5000    0.0000 F   0  0  0  0  0  0  0  0  0  0  0  0
   64.5000    1.5000    0.0000 F   0  0  0  0  0  0  0  0  0  0  0  0
   66.0000    0.0000    0.0000 C   0  0  0  0  0  0  0  0  0  0  0  0
   66.0000    1.5000    0.0000 F   0  0  0  0  0  0  0  0  0  0  0  0
   66.0000   -1.5000    0.0000 F   0  0  0  0  0  0  0  0  0  0  0  0
   67.5000    0.0000    0.0000 C   0  0  0  0  0  0  0  0  0  0  0  0
   67.5000   -1.5000    0.0000 F   0  0  0  0  0  0  0  0  0  0  0  0
   67.5000    1.5000    0.0000 F   0  0  0  0  0  0  0  0  0  0  0  0
   69.0000    0.0000    0.0000 C   0  0  0  0  0  0  0  0  0  0  0  0
   70.5000    0.0000    0.0000 F   0  0  0  0  0  0  0  0  0  0  0  0
   69.0000    1.5000    0.0000 F   0  0  0  0  0  0  0  0  0  0  0  0
   69.0000   -1.5000    0.0000 F   0  0  0  0  0  0  0  0  0  0  0  0
  1  2  1  0
  2  3  1  0
  3  4  1  0
  4  5  1  0
  5  6  1  0
  6  7  1  0
  7  8  1  0
  8  9  1  0
  9 10  1  0
 10 11  1  0
 11 12  1  0
 12 13  1  0
 13 14  1  0
 14 15  1  0
 15 16  1  0
 16 17  1  0
 16 18  1  0
 16 19  1  0
 19 20  1  0
 19 21  1  0
 19 22  1  0
 22 23  1  0
 22 24  1  0
 22 25  1  0
 25 26  1  0
 25 27  1  0
 25 28  1  0
 28 29  1  0
 28 30  1  0
 28 31  1  0
 31 32  1  0
 31 33  1  0
 31 34  1  0
 34 35  1  0
 34 36  1  0
 34 37  1  0
 37 38  1  0
 37 39  1  0
 37 40  1  0
 40 41  1  0
 40 42  1  0
 40 43  1  0
 43 44  1  0
 43 45  1  0
 43 46  1  0
 46 47  1  0
 46 48  1  0
 46 49  1  0
 49 50  1  0
 49 51  1  0
 49 52  1  0
 52 53  1  0
 52 54  1  0
 52 55  1  0
 55 56  1  0
 55 57  1  0
 55 58  1  0
 58 59  1  0
 58 60  1  0
 58 61  1  0
 61 62  1  0
 61 63  1  0
 61 64  1  0
 64 65  1  0
 64 66  1  0
 64 67  1  0
 67 68  1  0
 67 69  1  0
 67 70  1  0
 70 71  1  0
 70 72  1  0
 70 73  1  0
 73 74  1  0
 73 75  1  0
 73 76  1  0
 76 77  1  0
 76 78  1  0
 76 79  1  0
 79 80  1  0
 79 81  1  0
 79 82  1  0
 82 83  1  0
 82 84  1  0
 82 85  1  0
 85 86  1  0
 85 87  1  0
 85 88  1  0
 88 89  1  0
 88 90  1  0
 88 91  1  0
 91 92  1  0
 91 93  1  0
 91 94  1  0
 94 95  1  0
 94 96  1  0
 94 97  1  0
 97 98  1  0
 97 99  1  0
 97100  1  0
100101  1  0
100102  1  0
100103  1  0
103104  1  0
103105  1  0
103106  1  0
106107  1  0
106108  1  0
106109  1  0
109110  1  0
109111  1  0
109112  1  0
112113  1  0
112114  1  0
112115  1  0
115116  1  0
115117  1  0
115118  1  0
118119  1  0
118120  1  0
118121  1  0
121122  1  0
121123  1  0
121124  1  0
124125  1  0
124126  1  0
124127  1  0
127128  1  0
127129  1  0
127130  1  0
130131  1  0
130132  1  0
130133  1  0
133134  1  0
133135  1  0
133136  1  0
136137  1  0
136138  1  0
136139  1  0
139140  1  0
139141  1  0
139142  1  0
142143  1  0
142144  1  0
142145  1  0
145146  1  0
145147  1  0
145148  1  0
148149  1  0
148150  1  0
148151  1  0
151152  1  0
151153  1  0
151154  1  0
154155  1  0
154156  1  0
154157  1  0
M  END
$$$$

     RDKit          2D

 45 46  0  0  0  0  0  0  0  0999 V2000
    0.2010   -3.3481    0.0000 O   0  0  0  0  0  0  0  0  0  0  0  0
    1.5000   -2.5981    0.0000 P   0  0  0  0  0  0  0  0  0  0  0  0
    2.7990   -1.8481    0.0000 O   0  0  0  0  0  0  0  0  0  0  0  0
    4.0981   -2.5981    0.0000 C   0  0  0  0  0  0  0  0  0  0  0  0
    5.3971   -1.8481    0.0000 C   0  0  0  0  0  0  0  0  0  0  0  0
    6.6962   -2.5981    0.0000 C   0  0  0  0  0  0  0  0  0  0  0  0
    7.9952   -1.8481    0.0000 C   0  0  0  0  0  0  0  0  0  0  0  0
    9.2942   -2.5981    0.0000 C   0  0  0  0  0  0  0  0  0  0  0  0
   10.5933   -1.8481    0.0000 C   0  0  0  0  0  0  0  0  0  0  0  0
   11.8923   -2.5981    0.0000 C   0  0  0  0  0  0  0  0  0  0  0  0
   13.1913   -1.8481    0.0000 C   0  0  0  0  0  0  0  0  0  0  0  0
   14.4904   -2.5981    0.0000 C   0  0  0  0  0  0  0  0  0  0  0  0
   15.7894   -1.8481    0.0000 C   0  0  0  0  0  0  0  0  0  0  0  0
   17.0885   -2.5981    0.0000 C   0  0  0  0  0  0  0  0  0  0  0  0
   18.3875   -1.8481    0.0000 C   0  0  0  0  0  0  0  0  0  0  0  0
   19.1375   -3.1471    0.0000 F   0  0  0  0  0  0  0  0  0  0  0  0
   17.6375   -0.5490    0.0000 F   0  0  0  0  0  0  0  0  0  0  0  0
   19.6865   -1.0981    0.0000 C   0  0  0  0  0  0  0  0  0  0  0  0
   18.9365    0.2010    0.0000 F   0  0  0  0  0  0  0  0  0  0  0  0
   20.4365   -2.3971    0.0000 F   0  0  0  0  0  0  0  0  0  0  0  0
   20.9856   -0.3481    0.0000 C   0  0  0  0  0  0  0  0  0  0  0  0
   21.7356   -1.6471    0.0000 F   0  0  0  0  0  0  0  0  0  0  0  0
   20.2356    0.9510    0.0000 F   0  0  0  0  0  0  0  0  0  0  0  0
   22.2846    0.4019    0.0000 C   0  0  0  0  0  0  0  0  0  0  0  0
   21.5346    1.7010    0.0000 F   0  0  0  0  0  0  0  0  0  0  0  0
   23.0346   -0.8971    0.0000 F   0  0  0  0  0  0  0  0  0  0  0  0
   23.5836    1.1519    0.0000 C   0  0  0  0  0  0  0  0  0  0  0  0
   24.3336   -0.1471    0.0000 F   0  0  0  0  0  0  0  0  0  0  0  0
   22.8336    2.4510    0.0000 F   0  0  0  0  0  0  0  0  0  0  0  0
   24.8827    1.9019    0.0000 C   0  0  0  0  0  0  0  0  0  0  0  0
   26.1817    2.6519    0.0000 F   0  0  0  0  0  0  0  0  0  0  0  0
   24.1327    3.2010    0.0000 F   0  0  0  0  0  0  0  0  0  0  0  0
   25.6327    0.6029    0.0000 F   0  0  0  0  0  0  0  0  0  0  0  0
    0.7500   -1.2990    0.0000 N   0  0  0  0  0  0  0  0  0  0  0  0
    1.5000    0.0000    0.0000 C   0  0  0  0  0  0  0  0  0  0  0  0
    0.7500    1.2990    0.0000 C   0  0  0  0  0  0  0  0  0  0  0  0
   -0.7500    1.2990    0.0000 O   0  0  0  0  0  0  0  0  0  0  0  0
   -1.5000    0.0000    0.0000 C   0  0  0  0  0  0  0  0  0  0  0  0
   -0.7500   -1.2990    0.0000 C   0  0  0  0  0  0  0  0  0  0  0  0
    2.2500   -3.8971    0.0000 N   0  0  0  0  0  0  0  0  0  0  0  0
    1.5000   -5.1962    0.0000 C   0  0  0  0  0  0  0  0  0  0  0  0
    2.2500   -6.4952    0.0000 C   0  0  0  0  0  0  0  0  0  0  0  0
    3.7500   -6.4952    0.0000 O   0  0  0  0  0  0  0  0  0  0  0  0
    4.5000   -5.1962    0.0000 C   0  0  0  0  0  0  0  0  0  0  0  0
    3.7500   -3.8971    0.0000 C   0  0  0  0  0  0  0  0  0  0  0  0
  1  2  2  0
  2  3  1  0
  3  4  1  0
  4  5  1  0
  5  6  1  0
  6  7  1  0
  7  8  1  0
  8  9  1  0
  9 10  1  0
 10 11  1  0
 11 12  1  0
 12 13  1  0
 13 14  1  0
 14 15  1  0
 15 16  1  0
 15 17  1  0
 15 18  1  0
 18 19  1  0
 18 20  1  0
 18 21  1  0
 21 22  1  0
 21 23  1  0
 21 24  1  0
 24 25  1  0
 24 26  1  0
 24 27  1  0
 27 28  1  0
 27 29  1  0
 27 30  1  0
 30 31  1  0
 30 32  1  0
 30 33  1  0
  2 34  1  0
 34 35  1  0
 35 36  1  0
 36 37  1  0
 37 38  1  0
 38 39  1  0
  2 40  1  0
 40 41  1  0
 41 42  1  0
 42 43  1  0
 43 44  1  0
 44 45  1  0
 39 34  1  0
 45 40  1  0
M  END
$$$$

     RDKit          2D

 39 36  0  0  0  0  0  0  0  0999 V2000
   11.6913    6.7500    0.0000 F   0  0  0  0  0  0  0  0  0  0  0  0
   10.3923    6.0000    0.0000 C   0  0  0  0  0  0  0  0  0  0  0  0
    9.6423    7.2990    0.0000 F   0  0  0  0  0  0  0  0  0  0  0  0
   11.1423    4.7010    0.0000 F   0  0  0  0  0  0  0  0  0  0  0  0
    9.0933    5.2500    0.0000 C   0  0  0  0  0  0  0  0  0  0  0  0
    9.8433    3.9510    0.0000 F   0  0  0  0  0  0  0  0  0  0  0  0
    8.3433    6.5490    0.0000 F   0  0  0  0  0  0  0  0  0  0  0  0
    7.7942    4.5000    0.0000 C   0  0  0  0  0  0  0  0  0  0  0  0
    7.0442    5.7990    0.0000 F   0  0  0  0  0  0  0  0  0  0  0  0
    8.5442    3.2010    0.0000 F   0  0  0  0  0  0  0  0  0  0  0  0
    6.4952    3.7500    0.0000 C   0  0  0  0  0  0  0  0  0  0  0  0
    7.2452    2.4510    0.0000 F   0  0  0  0  0  0  0  0  0  0  0  0
    5.7452    5.0490    0.0000 F   0  0  0  0  0  0  0  0  0  0  0  0
    5.1962    3.0000    0.0000 C   0  0  0  0  0  0  0  0  0  0  0  0
    4.4462    4.2990    0.0000 F   0  0  0  0  0  0  0  0  0  0  0  0
    5.9462    1.7010    0.0000 F   0  0  0  0  0  0  0  0  0  0  0  0
    3.8971    2.2500    0.0000 C   0  0  0  0  0  0  0  0  0  0  0  0
    4.6471    0.9510    0.0000 F   0  0  0  0  0  0  0  0  0  0  0  0
    3.1471    3.5490    0.0000 F   0  0  0  0  0  0  0  0  0  0  0  0
    2.5981    1.5000    0.0000 C   0  0  0  0  0  0  0  0  0  0  0  0
    1.8481    2.7990    0.0000 F   0  0  0  0  0  0  0  0  0  0  0  0
    3.3481    0.2010    0.0000 F   0  0  0  0  0  0  0  0  0  0  0  0
    1.2990    0.7500    0.0000 C   0  0  0  0  0  0  0  0  0  0  0  0
    2.0490   -0.5490    0.0000 F   0  0  0  0  0  0  0  0  0  0  0  0
    0.5490    2.0490    0.0000 F   0  0  0  0  0  0  0  0  0  0  0  0
    0.0000    0.0000    0.0000 C   0  0  0  0  0  0  0  0  0  0  0  0
   -1.2990    0.7500    0.0000 C   0  0  0  0  0  0  0  0  0  0  0  0
   -2.5981    0.0000    0.0000 I   0  0  0  0  0  0  0  0  0  0  0  0
   -1.2990   12.7990    0.0000 O   0  0  0  0  0  0  0  0  0  0  0  0
    0.0000   12.0490    0.0000 C   0  0  0  0  0  0  0  0  0  0  0  0
    1.2990   12.7990    0.0000 C   0  0  0  0  0  0  0  0  0  0  0  0
    2.5981   12.0490    0.0000 N   0  0  0  0  0  0  0  0  0  0  0  0
    3.8971   12.7990    0.0000 C   0  0  0  0  0  0  0  0  0  0  0  0
    5.1962   12.0490    0.0000 C   0  0  0  0  0  0  0  0  0  0  0  0
    6.4952   12.7990    0.0000 O   0  0  0  0  0  0  0  0  0  0  0  0
    2.5981   10.5490    0.0000 C   0  0  0  0  0  0  0  0  0  0  0  0
    3.8971    9.7990    0.0000 C   0  0  0  0  0  0  0  0  0  0  0  0
    3.8971    8.2990    0.0000 O   0  0  0  0  0  0  0  0  0  0  0  0
    0.0000   13.7990    0.0000 Si  0  0  0  0  0 15  0  0  0  0  0  0
  1  2  1  0
  2  3  1  0
  2  4  1  0
  2  5  1  0
  5  6  1  0
  5  7  1  0
  5  8  1  0
  8  9  1  0
  8 10  1  0
  8 11  1  0
 11 12  1  0
 11 13  1  0
 11 14  1  0
 14 15  1  0
 14 16  1  0
 14 17  1  0
 17 18  1  0
 17 19  1  0
 17 20  1  0
 20 21  1  0
 20 22  1  0
 20 23  1  0
 23 24  1  0
 23 25  1  0
 23 26  1  0
 26 27  1  0
 27 28  1  0
 29 30  1  0
 30 31  1  0
 31 32  1  0
 32 33  1  0
 33 34  1  0
 34 35  1  0
 32 36  1  0
 36 37  1  0
 37 38  1  0
M  CHG  5  27  -1  29  -1  35  -1  38  -1  39   4
M  END
$$$$

     RDKit          2D

 29 28  0  0  0  0  0  0  0  0999 V2000
    0.0000    0.0000    0.0000 C   0  0  0  0  0  0  0  0  0  0  0  0
    1.2990    0.7500    0.0000 C   0  0  0  0  0  0  0  0  0  0  0  0
    2.5981   -0.0000    0.0000 C   0  0  0  0  0  0  0  0  0  0  0  0
    3.8971    0.7500    0.0000 C   0  0  0  0  0  0  0  0  0  0  0  0
    5.1962   -0.0000    0.0000 C   0  0  0  0  0  0  0  0  0  0  0  0
    6.4952    0.7500    0.0000 C   0  0  0  0  0  0  0  0  0  0  0  0
    7.7942   -0.0000    0.0000 C   0  0  0  0  0  0  0  0  0  0  0  0
    9.0933    0.7500    0.0000 C   0  0  0  0  0  0  0  0  0  0  0  0
   10.3923   -0.0000    0.0000 C   0  0  0  0  0  0  0  0  0  0  0  0
   11.6913    0.7500    0.0000 C   0  0  0  0  0  0  0  0  0  0  0  0
   12.9904   -0.0000    0.0000 C   0  0  0  0  0  0  0  0  0  0  0  0
   13.7404    1.2990    0.0000 F   0  0  0  0  0  0  0  0  0  0  0  0
   12.2404   -1.2990    0.0000 F   0  0  0  0  0  0  0  0  0  0  0  0
   14.2894   -0.7500    0.0000 C   0  0  0  0  0  0  0  0  0  0  0  0
   13.5394   -2.0490    0.0000 F   0  0  0  0  0  0  0  0  0  0  0  0
   15.0394    0.5490    0.0000 F   0  0  0  0  0  0  0  0  0  0  0  0
   15.5885   -1.5000    0.0000 C   0  0  0  0  0  0  0  0  0  0  0  0
   16.3385   -0.2010    0.0000 F   0  0  0  0  0  0  0  0  0  0  0  0
   14.8385   -2.7990    0.0000 F   0  0  0  0  0  0  0  0  0  0  0  0
   16.8875   -2.2500    0.0000 C   0  0  0  0  0  0  0  0  0  0  0  0
   16.1375   -3.5490    0.0000 F   0  0  0  0  0  0  0  0  0  0  0  0
   17.6375   -0.9510    0.0000 F   0  0  0  0  0  0  0  0  0  0  0  0
   18.1865   -3.0000    0.0000 C   0  0  0  0  0  0  0  0  0  0  0  0
   18.9365   -1.7010    0.0000 F   0  0  0  0  0  0  0  0  0  0  0  0
   17.4365   -4.2990    0.0000 F   0  0  0  0  0  0  0  0  0  0  0  0
   19.4856   -3.7500    0.0000 C   0  0  0  0  0  0  0  0  0  0  0  0
   20.7846   -4.5000    0.0000 F   0  0  0  0  0  0  0  0  0  0  0  0
   18.7356   -5.0490    0.0000 F   0  0  0  0  0  0  0  0  0  0  0  0
   20.2356   -2.4510    0.0000 F   0  0  0  0  0  0  0  0  0  0  0  0
  1  2  1  0
  2  3  1  0
  3  4  1  0
  4  5  1  0
  5  6  1  0
  6  7  1  0
  7  8  1  0
  8  9  1  0
  9 10  1  0
 10 11  1  0
 11 12  1  0
 11 13  1  0
 11 14  1  0
 14 15  1  0
 14 16  1  0
 14 17  1  0
 17 18  1  0
 17 19  1  0
 17 20  1  0
 20 21  1  0
 20 22  1  0
 20 23  1  0
 23 24  1  0
 23 25  1  0
 23 26  1  0
 26 27  1  0
 26 28  1  0
 26 29  1  0
M  END
$$$$

     RDKit          2D

 17 16  0  0  0  0  0  0  0  0999 V2000
    0.0000    0.0000    0.0000 C   0  0  0  0  0  0  0  0  0  0  0  0
    1.2990    0.7500    0.0000 O   0  0  0  0  0  0  0  0  0  0  0  0
    2.5981   -0.0000    0.0000 C   0  0  0  0  0  0  0  0  0  0  0  0
    2.5981   -1.5000    0.0000 O   0  0  0  0  0  0  0  0  0  0  0  0
    3.8971    0.7500    0.0000 C   0  0  0  0  0  0  0  0  0  0  0  0
    4.6471   -0.5490    0.0000 F   0  0  0  0  0  0  0  0  0  0  0  0
    3.1471    2.0490    0.0000 F   0  0  0  0  0  0  0  0  0  0  0  0
    5.1962    1.5000    0.0000 C   0  0  0  0  0  0  0  0  0  0  0  0
    4.4462    2.7990    0.0000 F   0  0  0  0  0  0  0  0  0  0  0  0
    5.9462    0.2010    0.0000 F   0  0  0  0  0  0  0  0  0  0  0  0
    6.4952    2.2500    0.0000 C   0  0  0  0  0  0  0  0  0  0  0  0
    5.7452    3.5490    0.0000 F   0  0  0  0  0  0  0  0  0  0  0  0
    7.2452    0.9510    0.0000 F   0  0  0  0  0  0  0  0  0  0  0  0
    7.7942    3.0000    0.0000 C   0  0  0  0  0  0  0  0  0  0  0  0
    9.0933    2.2500    0.0000 O   0  0  0  0  0  0  0  0  0  0  0  0
    7.7942    4.5000    0.0000 O   0  0  0  0  0  0  0  0  0  0  0  0
    9.0933    5.2500    0.0000 C   0  0  0  0  0  0  0  0  0  0  0  0
  1  2  1  0
  2  3  1  0
  3  4  2  0
  3  5  1  0
  5  6  1  0
  5  7  1  0
  5  8  1  0
  8  9  1  0
  8 10  1  0
  8 11  1  0
 11 12  1  0
 11 13  1  0
 11 14  1  0
 14 15  2  0
 14 16  1  0
 16 17  1  0
M  END
$$$$

     RDKit          2D

 29 30  0  0  0  0  0  0  0  0999 V2000
    2.7990   -1.8481    0.0000 C   0  0  0  0  0  0  0  0  0  0  0  0
    1.5000   -2.5981    0.0000 C   0  0  0  0  0  0  0  0  0  0  0  0
    0.2010   -3.3481    0.0000 C   0  0  0  0  0  0  0  0  0  0  0  0
    0.7500   -1.2990    0.0000 C   0  0  0  0  0  0  0  0  0  0  0  0
    1.5000    0.0000    0.0000 C   0  0  0  0  0  0  0  0  0  0  0  0
    0.7500    1.2990    0.0000 C   0  0  0  0  0  0  0  0  0  0  0  0
   -0.7500    1.2990    0.0000 C   0  0  0  0  0  0  0  0  0  0  0  0
   -1.5000    2.5981    0.0000 O   0  0  0  0  0  0  0  0  0  0  0  0
   -0.7500    3.8971    0.0000 C   0  0  0  0  0  0  0  0  0  0  0  0
    0.5490    3.1471    0.0000 F   0  0  0  0  0  0  0  0  0  0  0  0
   -2.0490    4.6471    0.0000 F   0  0  0  0  0  0  0  0  0  0  0  0
    0.0000    5.1962    0.0000 C   0  0  0  0  0  0  0  0  0  0  0  0
    1.5000    5.1962    0.0000 F   0  0  0  0  0  0  0  0  0  0  0  0
   -0.7500    6.4952    0.0000 F   0  0  0  0  0  0  0  0  0  0  0  0
   -1.5000    0.0000    0.0000 C   0  0  0  0  0  0  0  0  0  0  0  0
   -0.7500   -1.2990    0.0000 C   0  0  0  0  0  0  0  0  0  0  0  0
    2.2500   -3.8971    0.0000 C   0  0  0  0  0  0  0  0  0  0  0  0
    1.5000   -5.1962    0.0000 C   0  0  0  0  0  0  0  0  0  0  0  0
    2.2500   -6.4952    0.0000 C   0  0  0  0  0  0  0  0  0  0  0  0
    3.7500   -6.4952    0.0000 C   0  0  0  0  0  0  0  0  0  0  0  0
    4.5000   -7.7942    0.0000 O   0  0  0  0  0  0  0  0  0  0  0  0
    3.7500   -9.0933    0.0000 C   0  0  0  0  0  0  0  0  0  0  0  0
    2.4510   -8.3433    0.0000 F   0  0  0  0  0  0  0  0  0  0  0  0
    5.0490   -9.8433    0.0000 F   0  0  0  0  0  0  0  0  0  0  0  0
    3.0000  -10.3923    0.0000 C   0  0  0  0  0  0  0  0  0  0  0  0
    1.5000  -10.3923    0.0000 F   0  0  0  0  0  0  0  0  0  0  0  0
    3.7500  -11.6913    0.0000 F   0  0  0  0  0  0  0  0  0  0  0  0
    4.5000   -5.1962    0.0000 C   0  0  0  0  0  0  0  0  0  0  0  0
    3.7500   -3.8971    0.0000 C   0  0  0  0  0  0  0  0  0  0  0  0
  1  2  1  0
  2  3  1  0
  2  4  1  0
  4  5  2  0
  5  6  1  0
  6  7  2  0
  7  8  1  0
  8  9  1  0
  9 10  1  0
  9 11  1  0
  9 12  1  0
 12 13  1  0
 12 14  1  0
  7 15  1  0
 15 16  2  0
  2 17  1  0
 17 18  2  0
 18 19  1  0
 19 20  2  0
 20 21  1  0
 21 22  1  0
 22 23  1  0
 22 24  1  0
 22 25  1  0
 25 26  1  0
 25 27  1  0
 20 28  1  0
 28 29  2  0
 16  4  1  0
 29 17  1  0
M  END
$$$$

     RDKit          2D

 14 13  0  0  0  0  0  0  0  0999 V2000
   -1.2990    2.2500    0.0000 O   0  0  0  0  0  0  0  0  0  0  0  0
   -1.2990    0.7500    0.0000 C   0  0  0  0  0  0  0  0  0  0  0  0
   -2.5981    0.0000    0.0000 O   0  0  0  0  0  0  0  0  0  0  0  0
    0.0000    0.0000    0.0000 C   0  0  0  0  0  0  0  0  0  0  0  0
    1.2990    0.7500    0.0000 C   0  0  0  0  0  0  0  0  0  0  0  0
    0.5490    2.0490    0.0000 O   0  0  0  0  0  0  0  0  0  0  0  0
    2.5981    1.5000    0.0000 C   0  0  0  0  0  0  0  0  0  0  0  0
    3.8971    2.2500    0.0000 F   0  0  0  0  0  0  0  0  0  0  0  0
    1.8481    2.7990    0.0000 F   0  0  0  0  0  0  0  0  0  0  0  0
    3.1311    0.7926    0.0000 F   0  0  0  0  0  0  0  0  0  0  0  0
    2.0490   -0.5490    0.0000 C   0  0  0  0  0  0  0  0  0  0  0  0
    2.7990   -1.8481    0.0000 F   0  0  0  0  0  0  0  0  0  0  0  0
    2.8644   -0.2030    0.0000 F   0  0  0  0  0  0  0  0  0  0  0  0
    0.7500   -1.2990    0.0000 F   0  0  0  0  0  0  0  0  0  0  0  0
  1  2  2  0
  2  3  1  0
  2  4  1  0
  4  5  1  0
  5  6  1  0
  5  7  1  0
  7  8  1  0
  7  9  1  0
  7 10  1  0
  5 11  1  0
 11 12  1  0
 11 13  1  0
 11 14  1  0
M  END
$$$$

     RDKit          2D

 11 10  0  0  0  0  0  0  0  0999 V2000
   -1.5000    0.0000    0.0000 F   0  0  0  0  0  0  0  0  0  0  0  0
    0.0000    0.0000    0.0000 C   0  0  0  0  0  0  0  0  0  0  0  0
    0.0000    1.5000    0.0000 F   0  0  0  0  0  0  0  0  0  0  0  0
   -0.0000   -1.5000    0.0000 F   0  0  0  0  0  0  0  0  0  0  0  0
    1.5000    0.0000    0.0000 C   0  0  0  0  0  0  0  0  0  0  0  0
    1.5000   -1.5000    0.0000 Cl  0  0  0  0  0  0  0  0  0  0  0  0
    1.5000    1.5000    0.0000 Cl  0  0  0  0  0  0  0  0  0  0  0  0
    3.0000    0.0000    0.0000 C   0  0  0  0  0  0  0  0  0  0  0  0
    4.5000    0.0000    0.0000 F   0  0  0  0  0  0  0  0  0  0  0  0
    3.0000    1.5000    0.0000 F   0  0  0  0  0  0  0  0  0  0  0  0
    3.0000   -1.5000    0.0000 F   0  0  0  0  0  0  0  0  0  0  0  0
  1  2  1  0
  2  3  1  0
  2  4  1  0
  2  5  1  0
  5  6  1  0
  5  7  1  0
  5  8  1  0
  8  9  1  0
  8 10  1  0
  8 11  1  0
M  END
$$$$

     RDKit          2D

 22 21  0  0  0  0  0  0  0  0999 V2000
    0.0000    0.0000    0.0000 C   0  0  0  0  0  0  0  0  0  0  0  0
    1.2990    0.7500    0.0000 C   0  0  0  0  0  0  0  0  0  0  0  0
    2.5981   -0.0000    0.0000 C   0  0  0  0  0  0  0  0  0  0  0  0
    3.3481    1.2990    0.0000 F   0  0  0  0  0  0  0  0  0  0  0  0
    1.8481   -1.2990    0.0000 F   0  0  0  0  0  0  0  0  0  0  0  0
    3.8971   -0.7500    0.0000 C   0  0  0  0  0  0  0  0  0  0  0  0
    3.1471   -2.0490    0.0000 F   0  0  0  0  0  0  0  0  0  0  0  0
    4.6471    0.5490    0.0000 F   0  0  0  0  0  0  0  0  0  0  0  0
    5.1962   -1.5000    0.0000 C   0  0  0  0  0  0  0  0  0  0  0  0
    5.9462   -0.2010    0.0000 F   0  0  0  0  0  0  0  0  0  0  0  0
    4.4462   -2.7990    0.0000 F   0  0  0  0  0  0  0  0  0  0  0  0
    6.4952   -2.2500    0.0000 C   0  0  0  0  0  0  0  0  0  0  0  0
    7.2452   -0.9510    0.0000 F   0  0  0  0  0  0  0  0  0  0  0  0
    5.7452   -3.5490    0.0000 F   0  0  0  0  0  0  0  0  0  0  0  0
    7.7942   -3.0000    0.0000 C   0  0  0  0  0  0  0  0  0  0  0  0
    7.0442   -4.2990    0.0000 F   0  0  0  0  0  0  0  0  0  0  0  0
    8.5442   -1.7010    0.0000 F   0  0  0  0  0  0  0  0  0  0  0  0
    9.0933   -3.7500    0.0000 C   0  0  0  0  0  0  0  0  0  0  0  0
    9.8433   -2.4510    0.0000 F   0  0  0  0  0  0  0  0  0  0  0  0
    8.3433   -5.0490    0.0000 F   0  0  0  0  0  0  0  0  0  0  0  0
   10.3923   -4.5000    0.0000 C   0  0  0  0  0  0  0  0  0  0  0  0
   11.6913   -3.7500    0.0000 C   0  0  0  0  0  0  0  0  0  0  0  0
  1  2  2  0
  2  3  1  0
  3  4  1  0
  3  5  1  0
  3  6  1  0
  6  7  1  0
  6  8  1  0
  6  9  1  0
  9 10  1  0
  9 11  1  0
  9 12  1  0
 12 13  1  0
 12 14  1  0
 12 15  1  0
 15 16  1  0
 15 17  1  0
 15 18  1  0
 18 19  1  0
 18 20  1  0
 18 21  1  0
 21 22  2  0
M  END
$$$$

     RDKit          2D

 72 72  0  0  0  0  0  0  0  0999 V2000
   13.5000    0.0000    0.0000 F   0  0  0  0  0  0  0  0  0  0  0  0
   12.0000    0.0000    0.0000 C   0  0  0  0  0  0  0  0  0  0  0  0
   12.0000   -1.5000    0.0000 F   0  0  0  0  0  0  0  0  0  0  0  0
   12.0000    1.5000    0.0000 F   0  0  0  0  0  0  0  0  0  0  0  0
   10.5000    0.0000    0.0000 C   0  0  0  0  0  0  0  0  0  0  0  0
   10.5000    1.5000    0.0000 F   0  0  0  0  0  0  0  0  0  0  0  0
   10.5000   -1.5000    0.0000 F   0  0  0  0  0  0  0  0  0  0  0  0
    9.0000    0.0000    0.0000 C   0  0  0  0  0  0  0  0  0  0  0  0
    9.0000   -1.5000    0.0000 F   0  0  0  0  0  0  0  0  0  0  0  0
    9.0000    1.5000    0.0000 F   0  0  0  0  0  0  0  0  0  0  0  0
    7.5000    0.0000    0.0000 C   0  0  0  0  0  0  0  0  0  0  0  0
    7.5000    1.5000    0.0000 F   0  0  0  0  0  0  0  0  0  0  0  0
    7.5000   -1.5000    0.0000 F   0  0  0  0  0  0  0  0  0  0  0  0
    6.0000    0.0000    0.0000 C   0  0  0  0  0  0  0  0  0  0  0  0
    6.0000   -1.5000    0.0000 F   0  0  0  0  0  0  0  0  0  0  0  0
    6.0000    1.5000    0.0000 F   0  0  0  0  0  0  0  0  0  0  0  0
    4.5000    0.0000    0.0000 C   0  0  0  0  0  0  0  0  0  0  0  0
    4.5000    1.5000    0.0000 F   0  0  0  0  0  0  0  0  0  0  0  0
    4.5000   -1.5000    0.0000 F   0  0  0  0  0  0  0  0  0  0  0  0
    3.0000    0.0000    0.0000 C   0  0  0  0  0  0  0  0  0  0  0  0
    3.0000   -1.5000    0.0000 F   0  0  0  0  0  0  0  0  0  0  0  0
    3.0000    1.5000    0.0000 F   0  0  0  0  0  0  0  0  0  0  0  0
    1.5000    0.0000    0.0000 C   0  0  0  0  0  0  0  0  0  0  0  0
    0.7500   -1.2990    0.0000 N   0  0  0  0  0  0  0  0  0  0  0  0
   -0.7500   -1.2990    0.0000 C   0  0  0  0  0  0  0  0  0  0  0  0
   -1.5000   -2.5981    0.0000 C   0  0  0  0  0  0  0  0  0  0  0  0
   -2.7990   -1.8481    0.0000 F   0  0  0  0  0  0  0  0  0  0  0  0
   -0.2010   -3.3481    0.0000 F   0  0  0  0  0  0  0  0  0  0  0  0
   -2.2500   -3.8971    0.0000 C   0  0  0  0  0  0  0  0  0  0  0  0
   -0.9510   -4.6471    0.0000 F   0  0  0  0  0  0  0  0  0  0  0  0
   -3.5490   -3.1471    0.0000 F   0  0  0  0  0  0  0  0  0  0  0  0
   -3.0000   -5.1962    0.0000 C   0  0  0  0  0  0  0  0  0  0  0  0
   -4.2990   -4.4462    0.0000 F   0  0  0  0  0  0  0  0  0  0  0  0
   -1.7010   -5.9462    0.0000 F   0  0  0  0  0  0  0  0  0  0  0  0
   -3.7500   -6.4952    0.0000 C   0  0  0  0  0  0  0  0  0  0  0  0
   -2.4510   -7.2452    0.0000 F   0  0  0  0  0  0  0  0  0  0  0  0
   -5.0490   -5.7452    0.0000 F   0  0  0  0  0  0  0  0  0  0  0  0
   -4.5000   -7.7942    0.0000 C   0  0  0  0  0  0  0  0  0  0  0  0
   -5.7990   -7.0442    0.0000 F   0  0  0  0  0  0  0  0  0  0  0  0
   -3.2010   -8.5442    0.0000 F   0  0  0  0  0  0  0  0  0  0  0  0
   -5.2500   -9.0933    0.0000 C   0  0  0  0  0  0  0  0  0  0  0  0
   -3.9510   -9.8433    0.0000 F   0  0  0  0  0  0  0  0  0  0  0  0
   -6.5490   -8.3433    0.0000 F   0  0  0  0  0  0  0  0  0  0  0  0
   -6.0000  -10.3923    0.0000 C   0  0  0  0  0  0  0  0  0  0  0  0
   -6.7500  -11.6913    0.0000 F   0  0  0  0  0  0  0  0  0  0  0  0
   -7.2990   -9.6423    0.0000 F   0  0  0  0  0  0  0  0  0  0  0  0
   -4.7010  -11.1423    0.0000 F   0  0  0  0  0  0  0  0  0  0  0  0
   -1.5000    0.0000    0.0000 N   0  0  0  0  0  0  0  0  0  0  0  0
   -0.7500    1.2990    0.0000 C   0  0  0  0  0  0  0  0  0  0  0  0
   -1.5000    2.5981    0.0000 C   0  0  0  0  0  0  0  0  0  0  0  0
   -0.2010    3.3481    0.0000 F   0  0  0  0  0  0  0  0  0  0  0  0
   -2.7990    1.8481    0.0000 F   0  0  0  0  0  0  0  0  0  0  0  0
   -2.2500    3.8971    0.0000 C   0  0  0  0  0  0  0  0  0  0  0  0
   -3.5490    3.1471    0.0000 F   0  0  0  0  0  0  0  0  0  0  0  0
   -0.9510    4.6471    0.0000 F   0  0  0  0  0  0  0  0  0  0  0  0
   -3.0000    5.1962    0.0000 C   0  0  0  0  0  0  0  0  0  0  0  0
   -1.7010    5.9462    0.0000 F   0  0  0  0  0  0  0  0  0  0  0  0
   -4.2990    4.4462    0.0000 F   0  0  0  0  0  0  0  0  0  0  0  0
   -3.7500    6.4952    0.0000 C   0  0  0  0  0  0  0  0  0  0  0  0
   -5.0490    5.7452    0.0000 F   0  0  0  0  0  0  0  0  0  0  0  0
   -2.4510    7.2452    0.0000 F   0  0  0  0  0  0  0  0  0  0  0  0
   -4.5000    7.7942    0.0000 C   0  0  0  0  0  0  0  0  0  0  0  0
   -3.2010    8.5442    0.0000 F   0  0  0  0  0  0  0  0  0  0  0  0
   -5.7990    7.0442    0.0000 F   0  0  0  0  0  0  0  0  0  0  0  0
   -5.2500    9.0933    0.0000 C   0  0  0  0  0  0  0  0  0  0  0  0
   -6.5490    8.3433    0.0000 F   0  0  0  0  0  0  0  0  0  0  0  0
   -3.9510    9.8433    0.0000 F   0  0  0  0  0  0  0  0  0  0  0  0
   -6.0000   10.3923    0.0000 C   0  0  0  0  0  0  0  0  0  0  0  0
   -6.7500   11.6913    0.0000 F   0  0  0  0  0  0  0  0  0  0  0  0
   -4.7010   11.1423    0.0000 F   0  0  0  0  0  0  0  0  0  0  0  0
   -7.2990    9.6423    0.0000 F   0  0  0  0  0  0  0  0  0  0  0  0
    0.7500    1.2990    0.0000 N   0  0  0  0  0  0  0  0  0  0  0  0
  1  2  1  0
  2  3  1  0
  2  4  1  0
  2  5  1  0
  5  6  1  0
  5  7  1  0
  5  8  1  0
  8  9  1  0
  8 10  1  0
  8 11  1  0
 11 12  1  0
 11 13  1  0
 11 14  1  0
 14 15  1  0
 14 16  1  0
 14 17  1  0
 17 18  1  0
 17 19  1  0
 17 20  1  0
 20 21  1  0
 20 22  1  0
 20 23  1  0
 23 24  2  0
 24 25  1  0
 25 26  1  0
 26 27  1  0
 26 28  1  0
 26 29  1  0
 29 30  1  0
 29 31  1  0
 29 32  1  0
 32 33  1  0
 32 34  1  0
 32 35  1  0
 35 36  1  0
 35 37  1  0
 35 38  1  0
 38 39  1  0
 38 40  1  0
 38 41  1  0
 41 42  1  0
 41 43  1  0
 41 44  1  0
 44 45  1  0
 44 46  1  0
 44 47  1  0
 25 48  2  0
 48 49  1  0
 49 50  1  0
 50 51  1  0
 50 52  1  0
 50 53  1  0
 53 54  1  0
 53 55  1  0
 53 56  1  0
 56 57  1  0
 56 58  1  0
 56 59  1  0
 59 60  1  0
 59 61  1  0
 59 62  1  0
 62 63  1  0
 62 64  1  0
 62 65  1  0
 65 66  1  0
 65 67  1  0
 65 68  1  0
 68 69  1  0
 68 70  1  0
 68 71  1  0
 49 72  2  0
 72 23  1  0
M  END
$$$$

     RDKit          2D

 60 60  0  0  0  0  0  0  0  0999 V2000
    3.0000   -2.5981    0.0000 O   0  0  0  0  0  0  0  0  0  0  0  0
    3.7500   -1.2990    0.0000 C   0  0  0  0  0  0  0  0  0  0  0  0
    3.0000    0.0000    0.0000 N   0  0  0  0  0  0  0  0  0  0  0  0
    1.5000    0.0000    0.0000 C   0  0  0  0  0  0  0  0  0  0  0  0
    0.7500   -1.2990    0.0000 C   0  0  0  0  0  0  0  0  0  0  0  0
   -0.7500   -1.2990    0.0000 C   0  0  0  0  0  0  0  0  0  0  0  0
   -1.5000    0.0000    0.0000 C   0  0  0  0  0  0  0  0  0  0  0  0
   -3.0000    0.0000    0.0000 S   0  0  0  0  0  0  0  0  0  0  0  0
   -4.5000    0.0000    0.0000 O   0  0  0  0  0  0  0  0  0  0  0  0
   -3.0000    1.5000    0.0000 O   0  0  0  0  0  0  0  0  0  0  0  0
   -3.0000   -1.5000    0.0000 Cl  0  0  0  0  0  0  0  0  0  0  0  0
   -0.7500    1.2990    0.0000 C   0  0  0  0  0  0  0  0  0  0  0  0
    0.7500    1.2990    0.0000 C   0  0  0  0  0  0  0  0  0  0  0  0
    1.5000    2.5981    0.0000 N   0  0  0  0  0  0  0  0  0  0  0  0
    0.7500    3.8971    0.0000 C   0  0  0  0  0  0  0  0  0  0  0  0
   -0.7500    3.8971    0.0000 O   0  0  0  0  0  0  0  0  0  0  0  0
    1.5000    5.1962    0.0000 C   0  0  0  0  0  0  0  0  0  0  0  0
    0.2010    5.9462    0.0000 F   0  0  0  0  0  0  0  0  0  0  0  0
    2.7990    4.4462    0.0000 F   0  0  0  0  0  0  0  0  0  0  0  0
    2.2500    6.4952    0.0000 C   0  0  0  0  0  0  0  0  0  0  0  0
    3.5490    5.7452    0.0000 F   0  0  0  0  0  0  0  0  0  0  0  0
    0.9510    7.2452    0.0000 F   0  0  0  0  0  0  0  0  0  0  0  0
    3.0000    7.7942    0.0000 C   0  0  0  0  0  0  0  0  0  0  0  0
    1.7010    8.5442    0.0000 F   0  0  0  0  0  0  0  0  0  0  0  0
    4.2990    7.0442    0.0000 F   0  0  0  0  0  0  0  0  0  0  0  0
    3.7500    9.0933    0.0000 C   0  0  0  0  0  0  0  0  0  0  0  0
    5.0490    8.3433    0.0000 F   0  0  0  0  0  0  0  0  0  0  0  0
    2.4510    9.8433    0.0000 F   0  0  0  0  0  0  0  0  0  0  0  0
    4.5000   10.3923    0.0000 C   0  0  0  0  0  0  0  0  0  0  0  0
    3.2010   11.1423    0.0000 F   0  0  0  0  0  0  0  0  0  0  0  0
    5.7990    9.6423    0.0000 F   0  0  0  0  0  0  0  0  0  0  0  0
    5.2500   11.6913    0.0000 C   0  0  0  0  0  0  0  0  0  0  0  0
    6.5490   10.9413    0.0000 F   0  0  0  0  0  0  0  0  0  0  0  0
    3.9510   12.4413    0.0000 F   0  0  0  0  0  0  0  0  0  0  0  0
    6.0000   12.9904    0.0000 C   0  0  0  0  0  0  0  0  0  0  0  0
    6.7500   14.2894    0.0000 F   0  0  0  0  0  0  0  0  0  0  0  0
    4.7010   13.7404    0.0000 F   0  0  0  0  0  0  0  0  0  0  0  0
    7.2990   12.2404    0.0000 F   0  0  0  0  0  0  0  0  0  0  0  0
    5.2500   -1.2990    0.0000 C   0  0  0  0  0  0  0  0  0  0  0  0
    5.2500   -2.7990    0.0000 F   0  0  0  0  0  0  0  0  0  0  0  0
    5.2500    0.2010    0.0000 F   0  0  0  0  0  0  0  0  0  0  0  0
    6.7500   -1.2990    0.0000 C   0  0  0  0  0  0  0  0  0  0  0  0
    6.7500    0.2010    0.0000 F   0  0  0  0  0  0  0  0  0  0  0  0
    6.7500   -2.7990    0.0000 F   0  0  0  0  0  0  0  0  0  0  0  0
    8.2500   -1.2990    0.0000 C   0  0  0  0  0  0  0  0  0  0  0  0
    8.2500   -2.7990    0.0000 F   0  0  0  0  0  0  0  0  0  0  0  0
    8.2500    0.2010    0.0000 F   0  0  0  0  0  0  0  0  0  0  0  0
    9.7500   -1.2990    0.0000 C   0  0  0  0  0  0  0  0  0  0  0  0
    9.7500    0.2010    0.0000 F   0  0  0  0  0  0  0  0  0  0  0  0
    9.7500   -2.7990    0.0000 F   0  0  0  0  0  0  0  0  0  0  0  0
   11.2500   -1.2990    0.0000 C   0  0  0  0  0  0  0  0  0  0  0  0
   11.2500   -2.7990    0.0000 F   0  0  0  0  0  0  0  0  0  0  0  0
   11.2500    0.2010    0.0000 F   0  0  0  0  0  0  0  0  0  0  0  0
   12.7500   -1.2990    0.0000 C   0  0  0  0  0  0  0  0  0  0  0  0
   12.7500    0.2010    0.0000 F   0  0  0  0  0  0  0  0  0  0  0  0
   12.7500   -2.7990    0.0000 F   0  0  0  0  0  0  0  0  0  0  0  0
   14.2500   -1.2990    0.0000 C   0  0  0  0  0  0  0  0  0  0  0  0
   15.7500   -1.2990    0.0000 F   0  0  0  0  0  0  0  0  0  0  0  0
   14.2500   -2.7990    0.0000 F   0  0  0  0  0  0  0  0  0  0  0  0
   14.2500    0.2010    0.0000 F   0  0  0  0  0  0  0  0  0  0  0  0
  1  2  2  0
  2  3  1  0
  3  4  1  0
  4  5  2  0
  5  6  1  0
  6  7  2  0
  7  8  1  0
  8  9  2  0
  8 10  2  0
  8 11  1  0
  7 12  1  0
 12 13  2  0
 13 14  1  0
 14 15  1  0
 15 16  2  0
 15 17  1  0
 17 18  1  0
 17 19  1  0
 17 20  1  0
 20 21  1  0
 20 22  1  0
 20 23  1  0
 23 24  1  0
 23 25  1  0
 23 26  1  0
 26 27  1  0
 26 28  1  0
 26 29  1  0
 29 30  1  0
 29 31  1  0
 29 32  1  0
 32 33  1  0
 32 34  1  0
 32 35  1  0
 35 36  1  0
 35 37  1  0
 35 38  1  0
  2 39  1  0
 39 40  1  0
 39 41  1  0
 39 42  1  0
 42 43  1  0
 42 44  1  0
 42 45  1  0
 45 46  1  0
 45 47  1  0
 45 48  1  0
 48 49  1  0
 48 50  1  0
 48 51  1  0
 51 52  1  0
 51 53  1  0
 51 54  1  0
 54 55  1  0
 54 56  1  0
 54 57  1  0
 57 58  1  0
 57 59  1  0
 57 60  1  0
 13  4  1  0
M  END
$$$$

     RDKit          2D

 25 24  0  0  0  0  0  0  0  0999 V2000
   -2.5981    1.5000    0.0000 O   0  0  0  0  0  0  0  0  0  0  0  0
   -1.2990    0.7500    0.0000 P   0  0  0  0  0  0  0  0  0  0  0  0
   -2.0490   -0.5490    0.0000 O   0  0  0  0  0  0  0  0  0  0  0  0
   -0.5490    2.0490    0.0000 O   0  0  0  0  0  0  0  0  0  0  0  0
    0.0000    0.0000    0.0000 C   0  0  0  0  0  0  0  0  0  0  0  0
    1.2990    0.7500    0.0000 C   0  0  0  0  0  0  0  0  0  0  0  0
    2.5981   -0.0000    0.0000 C   0  0  0  0  0  0  0  0  0  0  0  0
    3.3481    1.2990    0.0000 F   0  0  0  0  0  0  0  0  0  0  0  0
    1.8481   -1.2990    0.0000 F   0  0  0  0  0  0  0  0  0  0  0  0
    3.8971   -0.7500    0.0000 C   0  0  0  0  0  0  0  0  0  0  0  0
    3.1471   -2.0490    0.0000 F   0  0  0  0  0  0  0  0  0  0  0  0
    4.6471    0.5490    0.0000 F   0  0  0  0  0  0  0  0  0  0  0  0
    5.1962   -1.5000    0.0000 C   0  0  0  0  0  0  0  0  0  0  0  0
    5.9462   -0.2010    0.0000 F   0  0  0  0  0  0  0  0  0  0  0  0
    4.4462   -2.7990    0.0000 F   0  0  0  0  0  0  0  0  0  0  0  0
    6.4952   -2.2500    0.0000 C   0  0  0  0  0  0  0  0  0  0  0  0
    5.7452   -3.5490    0.0000 F   0  0  0  0  0  0  0  0  0  0  0  0
    7.2452   -0.9510    0.0000 F   0  0  0  0  0  0  0  0  0  0  0  0
    7.7942   -3.0000    0.0000 C   0  0  0  0  0  0  0  0  0  0  0  0
    8.5442   -1.7010    0.0000 F   0  0  0  0  0  0  0  0  0  0  0  0
    7.0442   -4.2990    0.0000 F   0  0  0  0  0  0  0  0  0  0  0  0
    9.0933   -3.7500    0.0000 C   0  0  0  0  0  0  0  0  0  0  0  0
   10.3923   -4.5000    0.0000 F   0  0  0  0  0  0  0  0  0  0  0  0
    8.3433   -5.0490    0.0000 F   0  0  0  0  0  0  0  0  0  0  0  0
    9.8433   -2.4510    0.0000 F   0  0  0  0  0  0  0  0  0  0  0  0
  1  2  2  0
  2  3  1  0
  2  4  1  0
  2  5  1  0
  5  6  1  0
  6  7  1  0
  7  8  1  0
  7  9  1  0
  7 10  1  0
 10 11  1  0
 10 12  1  0
 10 13  1  0
 13 14  1  0
 13 15  1  0
 13 16  1  0
 16 17  1  0
 16 18  1  0
 16 19  1  0
 19 20  1  0
 19 21  1  0
 19 22  1  0
 22 23  1  0
 22 24  1  0
 22 25  1  0
M  END
$$$$

     RDKit          2D

 11 10  0  0  0  0  0  0  0  0999 V2000
   -1.5000    0.0000    0.0000 F   0  0  0  0  0  0  0  0  0  0  0  0
    0.0000    0.0000    0.0000 C   0  0  0  0  0  0  0  0  0  0  0  0
    0.0000    1.5000    0.0000 F   0  0  0  0  0  0  0  0  0  0  0  0
   -0.0000   -1.5000    0.0000 F   0  0  0  0  0  0  0  0  0  0  0  0
    1.5000    0.0000    0.0000 C   0  0  0  0  0  0  0  0  0  0  0  0
    1.5000   -1.5000    0.0000 F   0  0  0  0  0  0  0  0  0  0  0  0
    1.5000    1.5000    0.0000 F   0  0  0  0  0  0  0  0  0  0  0  0
    3.0000    0.0000    0.0000 C   0  0  0  0  0  0  0  0  0  0  0  0
    4.5000    0.0000    0.0000 F   0  0  0  0  0  0  0  0  0  0  0  0
    3.0000    1.5000    0.0000 Cl  0  0  0  0  0  0  0  0  0  0  0  0
    3.0000   -1.5000    0.0000 Cl  0  0  0  0  0  0  0  0  0  0  0  0
  1  2  1  0
  2  3  1  0
  2  4  1  0
  2  5  1  0
  5  6  1  0
  5  7  1  0
  5  8  1  0
  8  9  1  0
  8 10  1  0
  8 11  1  0
M  END
$$$$

     RDKit          2D

 22 22  0  0  0  0  0  0  0  0999 V2000
    3.7500    1.2990    0.0000 O   0  0  0  0  0  0  0  0  0  0  0  0
    3.0000    0.0000    0.0000 C   0  0  0  0  0  0  0  0  0  0  0  0
    3.7500   -1.2990    0.0000 C   0  0  0  0  0  0  0  0  0  0  0  0
    5.2500   -1.2990    0.0000 C   0  0  0  0  0  0  0  0  0  0  0  0
    6.0000   -2.5981    0.0000 C   0  0  0  0  0  0  0  0  0  0  0  0
    6.7500   -3.8971    0.0000 F   0  0  0  0  0  0  0  0  0  0  0  0
    7.2990   -1.8481    0.0000 F   0  0  0  0  0  0  0  0  0  0  0  0
    4.7010   -3.3481    0.0000 F   0  0  0  0  0  0  0  0  0  0  0  0
    6.0000    0.0000    0.0000 C   0  0  0  0  0  0  0  0  0  0  0  0
    6.7500    1.2990    0.0000 F   0  0  0  0  0  0  0  0  0  0  0  0
    7.2990   -0.7500    0.0000 F   0  0  0  0  0  0  0  0  0  0  0  0
    4.7010    0.7500    0.0000 F   0  0  0  0  0  0  0  0  0  0  0  0
    1.5000    0.0000    0.0000 C   0  0  0  0  0  0  0  0  0  0  0  0
    0.7500   -1.2990    0.0000 C   0  0  0  0  0  0  0  0  0  0  0  0
   -0.7500   -1.2990    0.0000 C   0  0  0  0  0  0  0  0  0  0  0  0
   -1.5000    0.0000    0.0000 C   0  0  0  0  0  0  0  0  0  0  0  0
   -3.0000    0.0000    0.0000 Cl  0  0  0  0  0  0  0  0  0  0  0  0
   -0.7500    1.2990    0.0000 C   0  0  0  0  0  0  0  0  0  0  0  0
   -1.5000    2.5981    0.0000 N   0  0  0  0  0  0  0  0  0  0  0  0
   -3.0000    2.5981    0.0000 O   0  0  0  0  0  0  0  0  0  0  0  0
   -0.7500    3.8971    0.0000 O   0  0  0  0  0  0  0  0  0  0  0  0
    0.7500    1.2990    0.0000 C   0  0  0  0  0  0  0  0  0  0  0  0
  1  2  2  0
  2  3  1  0
  3  4  2  0
  4  5  1  0
  5  6  1  0
  5  7  1  0
  5  8  1  0
  4  9  1  0
  9 10  1  0
  9 11  1  0
  9 12  1  0
  2 13  1  0
 13 14  2  0
 14 15  1  0
 15 16  2  0
 16 17  1  0
 16 18  1  0
 18 19  1  0
 19 20  2  0
 19 21  1  0
 18 22  2  0
 22 13  1  0
M  CHG  2  19   1  21  -1
M  END
$$$$

     RDKit          2D

 19 18  0  0  0  0  0  0  0  0999 V2000
   -1.2990    0.7500    0.0000 F   0  0  0  0  0  0  0  0  0  0  0  0
    0.0000    0.0000    0.0000 C   0  0  0  0  0  0  0  0  0  0  0  0
   -0.0000   -1.5000    0.0000 F   0  0  0  0  0  0  0  0  0  0  0  0
    1.2990    0.7500    0.0000 C   0  0  0  0  0  0  0  0  0  0  0  0
    2.0490   -0.5490    0.0000 F   0  0  0  0  0  0  0  0  0  0  0  0
    0.5490    2.0490    0.0000 F   0  0  0  0  0  0  0  0  0  0  0  0
    2.5981    1.5000    0.0000 C   0  0  0  0  0  0  0  0  0  0  0  0
    1.8481    2.7990    0.0000 F   0  0  0  0  0  0  0  0  0  0  0  0
    3.3481    0.2010    0.0000 F   0  0  0  0  0  0  0  0  0  0  0  0
    3.8971    2.2500    0.0000 C   0  0  0  0  0  0  0  0  0  0  0  0
    4.6471    0.9510    0.0000 F   0  0  0  0  0  0  0  0  0  0  0  0
    3.1471    3.5490    0.0000 F   0  0  0  0  0  0  0  0  0  0  0  0
    5.1962    3.0000    0.0000 C   0  0  0  0  0  0  0  0  0  0  0  0
    4.4462    4.2990    0.0000 F   0  0  0  0  0  0  0  0  0  0  0  0
    5.9462    1.7010    0.0000 F   0  0  0  0  0  0  0  0  0  0  0  0
    6.4952    3.7500    0.0000 C   0  0  0  0  0  0  0  0  0  0  0  0
    7.7942    4.5000    0.0000 F   0  0  0  0  0  0  0  0  0  0  0  0
    7.2452    2.4510    0.0000 F   0  0  0  0  0  0  0  0  0  0  0  0
    5.7452    5.0490    0.0000 F   0  0  0  0  0  0  0  0  0  0  0  0
  1  2  1  0
  2  3  1  0
  2  4  1  0
  4  5  1  0
  4  6  1  0
  4  7  1  0
  7  8  1  0
  7  9  1  0
  7 10  1  0
 10 11  1  0
 10 12  1  0
 10 13  1  0
 13 14  1  0
 13 15  1  0
 13 16  1  0
 16 17  1  0
 16 18  1  0
 16 19  1  0
M  END
$$$$

     RDKit          2D

 10  9  0  0  0  0  0  0  0  0999 V2000
   -1.2990    0.7500    0.0000 N   0  0  0  0  0  0  0  0  0  0  0  0
    0.0000    0.0000    0.0000 C   0  0  0  0  0  0  0  0  0  0  0  0
    1.2990    0.7500    0.0000 C   0  0  0  0  0  0  0  0  0  0  0  0
    2.0490   -0.5490    0.0000 F   0  0  0  0  0  0  0  0  0  0  0  0
    0.5490    2.0490    0.0000 F   0  0  0  0  0  0  0  0  0  0  0  0
    2.5981    1.5000    0.0000 C   0  0  0  0  0  0  0  0  0  0  0  0
    3.3481    0.2010    0.0000 F   0  0  0  0  0  0  0  0  0  0  0  0
    1.8481    2.7990    0.0000 F   0  0  0  0  0  0  0  0  0  0  0  0
    3.8971    2.2500    0.0000 C   0  0  0  0  0  0  0  0  0  0  0  0
    5.1962    1.5000    0.0000 N   0  0  0  0  0  0  0  0  0  0  0  0
  1  2  1  0
  2  3  1  0
  3  4  1  0
  3  5  1  0
  3  6  1  0
  6  7  1  0
  6  8  1  0
  6  9  1  0
  9 10  1  0
M  END
$$$$

     RDKit          2D

 15 14  0  0  0  0  0  0  0  0999 V2000
   -1.5000    0.0000    0.0000 F   0  0  0  0  0  0  0  0  0  0  0  0
    0.0000    0.0000    0.0000 C   0  0  0  0  0  0  0  0  0  0  0  0
    0.0000    1.5000    0.0000 F   0  0  0  0  0  0  0  0  0  0  0  0
   -0.0000   -1.5000    0.0000 F   0  0  0  0  0  0  0  0  0  0  0  0
    1.5000    0.0000    0.0000 C   0  0  0  0  0  0  0  0  0  0  0  0
    1.5000   -1.5000    0.0000 F   0  0  0  0  0  0  0  0  0  0  0  0
    1.5000    1.5000    0.0000 F   0  0  0  0  0  0  0  0  0  0  0  0
    3.0000    0.0000    0.0000 O   0  0  0  0  0  0  0  0  0  0  0  0
    3.7500    1.2990    0.0000 C   0  0  0  0  0  0  0  0  0  0  0  0
    2.4510    2.0490    0.0000 F   0  0  0  0  0  0  0  0  0  0  0  0
    5.0490    0.5490    0.0000 F   0  0  0  0  0  0  0  0  0  0  0  0
    4.5000    2.5981    0.0000 C   0  0  0  0  0  0  0  0  0  0  0  0
    5.2500    3.8971    0.0000 F   0  0  0  0  0  0  0  0  0  0  0  0
    3.2010    3.3481    0.0000 F   0  0  0  0  0  0  0  0  0  0  0  0
    5.7990    1.8481    0.0000 F   0  0  0  0  0  0  0  0  0  0  0  0
  1  2  1  0
  2  3  1  0
  2  4  1  0
  2  5  1  0
  5  6  1  0
  5  7  1  0
  5  8  1  0
  8  9  1  0
  9 10  1  0
  9 11  1  0
  9 12  1  0
 12 13  1  0
 12 14  1  0
 12 15  1  0
M  END
$$$$

     RDKit          2D

  8  8  0  0  0  0  0  0  0  0999 V2000
    2.1213    1.0607    0.0000 F   0  0  0  0  0  0  0  0  0  0  0  0
    1.0607    0.0000    0.0000 C   0  0  0  0  0  0  0  0  0  0  0  0
    2.1213   -1.0607    0.0000 F   0  0  0  0  0  0  0  0  0  0  0  0
   -0.0000   -1.0607    0.0000 C   0  0  0  0  0  0  0  0  0  0  0  0
   -1.0607    0.0000    0.0000 C   0  0  0  0  0  0  0  0  0  0  0  0
    0.0000    1.0607    0.0000 C   0  0  0  0  0  0  0  0  0  0  0  0
   -1.0607    2.1213    0.0000 F   0  0  0  0  0  0  0  0  0  0  0  0
    1.0607    2.1213    0.0000 F   0  0  0  0  0  0  0  0  0  0  0  0
  1  2  1  0
  2  3  1  0
  2  4  1  0
  4  5  1  0
  5  6  1  0
  6  7  1  0
  6  8  1  0
  6  2  1  0
M  END
$$$$

     RDKit          2D

 13 12  0  0  0  0  0  0  0  0999 V2000
   -0.0000   -1.5000    0.0000 N   0  0  0  0  0  0  0  0  0  0  0  0
    0.0000    0.0000    0.0000 C   0  0  0  0  0  0  0  0  0  0  0  0
    0.0000    1.5000    0.0000 C   0  0  0  0  0  0  0  0  0  0  0  0
    1.5000    1.5000    0.0000 F   0  0  0  0  0  0  0  0  0  0  0  0
   -1.5000    1.5000    0.0000 F   0  0  0  0  0  0  0  0  0  0  0  0
    0.0000    3.0000    0.0000 C   0  0  0  0  0  0  0  0  0  0  0  0
   -1.5000    3.0000    0.0000 F   0  0  0  0  0  0  0  0  0  0  0  0
    1.5000    3.0000    0.0000 F   0  0  0  0  0  0  0  0  0  0  0  0
    0.0000    4.5000    0.0000 C   0  0  0  0  0  0  0  0  0  0  0  0
   -1.5000    4.5000    0.0000 F   0  0  0  0  0  0  0  0  0  0  0  0
    1.5000    4.5000    0.0000 F   0  0  0  0  0  0  0  0  0  0  0  0
    0.0000    6.0000    0.0000 C   0  0  0  0  0  0  0  0  0  0  0  0
   -0.0000    7.5000    0.0000 N   0  0  0  0  0  0  0  0  0  0  0  0
  1  2  3  0
  2  3  1  0
  3  4  1  0
  3  5  1  0
  3  6  1  0
  6  7  1  0
  6  8  1  0
  6  9  1  0
  9 10  1  0
  9 11  1  0
  9 12  1  0
 12 13  3  0
M  END
$$$$

     RDKit          2D

 20 19  0  0  0  0  0  0  0  0999 V2000
   -0.0000   -1.5000    0.0000 O   0  0  0  0  0  0  0  0  0  0  0  0
    0.0000    0.0000    0.0000 C   0  0  0  0  0  0  0  0  0  0  0  0
   -1.2990    0.7500    0.0000 O   0  0  0  0  0  0  0  0  0  0  0  0
    1.2990    0.7500    0.0000 C   0  0  0  0  0  0  0  0  0  0  0  0
    2.0490   -0.5490    0.0000 F   0  0  0  0  0  0  0  0  0  0  0  0
    0.5490    2.0490    0.0000 F   0  0  0  0  0  0  0  0  0  0  0  0
    2.5981    1.5000    0.0000 C   0  0  0  0  0  0  0  0  0  0  0  0
    1.8481    2.7990    0.0000 F   0  0  0  0  0  0  0  0  0  0  0  0
    3.3481    0.2010    0.0000 F   0  0  0  0  0  0  0  0  0  0  0  0
    3.8971    2.2500    0.0000 O   0  0  0  0  0  0  0  0  0  0  0  0
    5.1962    1.5000    0.0000 C   0  0  0  0  0  0  0  0  0  0  0  0
    4.4462    0.2010    0.0000 F   0  0  0  0  0  0  0  0  0  0  0  0
    5.9462    2.7990    0.0000 F   0  0  0  0  0  0  0  0  0  0  0  0
    6.4952    0.7500    0.0000 C   0  0  0  0  0  0  0  0  0  0  0  0
    5.7452   -0.5490    0.0000 F   0  0  0  0  0  0  0  0  0  0  0  0
    7.2452    2.0490    0.0000 F   0  0  0  0  0  0  0  0  0  0  0  0
    7.7942    0.0000    0.0000 C   0  0  0  0  0  0  0  0  0  0  0  0
    9.0933   -0.7500    0.0000 F   0  0  0  0  0  0  0  0  0  0  0  0
    8.5442    1.2990    0.0000 F   0  0  0  0  0  0  0  0  0  0  0  0
    7.0442   -1.2990    0.0000 F   0  0  0  0  0  0  0  0  0  0  0  0
  1  2  2  0
  2  3  1  0
  2  4  1  0
  4  5  1  0
  4  6  1  0
  4  7  1  0
  7  8  1  0
  7  9  1  0
  7 10  1  0
 10 11  1  0
 11 12  1  0
 11 13  1  0
 11 14  1  0
 14 15  1  0
 14 16  1  0
 14 17  1  0
 17 18  1  0
 17 19  1  0
 17 20  1  0
M  END
$$$$

     RDKit          2D

 27 26  0  0  0  0  0  0  0  0999 V2000
   -1.2990    0.7500    0.0000 O   0  0  0  0  0  0  0  0  0  0  0  0
    0.0000    0.0000    0.0000 C   0  0  0  0  0  0  0  0  0  0  0  0
   -0.0000   -1.5000    0.0000 Cl  0  0  0  0  0  0  0  0  0  0  0  0
    1.2990    0.7500    0.0000 C   0  0  0  0  0  0  0  0  0  0  0  0
    0.5490    2.0490    0.0000 F   0  0  0  0  0  0  0  0  0  0  0  0
    2.0490   -0.5490    0.0000 F   0  0  0  0  0  0  0  0  0  0  0  0
    2.5981    1.5000    0.0000 C   0  0  0  0  0  0  0  0  0  0  0  0
    3.3481    0.2010    0.0000 F   0  0  0  0  0  0  0  0  0  0  0  0
    1.8481    2.7990    0.0000 F   0  0  0  0  0  0  0  0  0  0  0  0
    3.8971    2.2500    0.0000 C   0  0  0  0  0  0  0  0  0  0  0  0
    3.1471    3.5490    0.0000 F   0  0  0  0  0  0  0  0  0  0  0  0
    4.6471    0.9510    0.0000 F   0  0  0  0  0  0  0  0  0  0  0  0
    5.1962    3.0000    0.0000 C   0  0  0  0  0  0  0  0  0  0  0  0
    5.9462    1.7010    0.0000 F   0  0  0  0  0  0  0  0  0  0  0  0
    4.4462    4.2990    0.0000 F   0  0  0  0  0  0  0  0  0  0  0  0
    6.4952    3.7500    0.0000 C   0  0  0  0  0  0  0  0  0  0  0  0
    5.7452    5.0490    0.0000 F   0  0  0  0  0  0  0  0  0  0  0  0
    7.2452    2.4510    0.0000 F   0  0  0  0  0  0  0  0  0  0  0  0
    7.7942    4.5000    0.0000 C   0  0  0  0  0  0  0  0  0  0  0  0
    8.5442    3.2010    0.0000 F   0  0  0  0  0  0  0  0  0  0  0  0
    7.0442    5.7990    0.0000 F   0  0  0  0  0  0  0  0  0  0  0  0
    9.0933    5.2500    0.0000 C   0  0  0  0  0  0  0  0  0  0  0  0
    8.3433    6.5490    0.0000 F   0  0  0  0  0  0  0  0  0  0  0  0
    9.8433    3.9510    0.0000 F   0  0  0  0  0  0  0  0  0  0  0  0
   10.3923    6.0000    0.0000 C   0  0  0  0  0  0  0  0  0  0  0  0
   10.3923    7.5000    0.0000 F   0  0  0  0  0  0  0  0  0  0  0  0
   11.6913    5.2500    0.0000 F   0  0  0  0  0  0  0  0  0  0  0  0
  1  2  2  0
  2  3  1  0
  2  4  1  0
  4  5  1  0
  4  6  1  0
  4  7  1  0
  7  8  1  0
  7  9  1  0
  7 10  1  0
 10 11  1  0
 10 12  1  0
 10 13  1  0
 13 14  1  0
 13 15  1  0
 13 16  1  0
 16 17  1  0
 16 18  1  0
 16 19  1  0
 19 20  1  0
 19 21  1  0
 19 22  1  0
 22 23  1  0
 22 24  1  0
 22 25  1  0
 25 26  1  0
 25 27  1  0
M  END
$$$$

     RDKit          2D

 35 34  0  0  0  0  0  0  0  0999 V2000
    7.7942    0.0000    0.0000 C   0  0  0  0  0  0  0  0  0  0  0  0
    6.4952    0.7500    0.0000 C   0  0  0  0  0  0  0  0  0  0  0  0
    5.1962    0.0000    0.0000 C   0  0  0  0  0  0  0  0  0  0  0  0
    3.8971    0.7500    0.0000 N   0  0  0  0  0  0  0  0  0  0  0  0
    2.5981   -0.0000    0.0000 C   0  0  0  0  0  0  0  0  0  0  0  0
    1.2990    0.7500    0.0000 C   0  0  0  0  0  0  0  0  0  0  0  0
    0.0000   -0.0000    0.0000 O   0  0  0  0  0  0  0  0  0  0  0  0
    3.8971    2.2500    0.0000 S   0  0  0  0  0  0  0  0  0  0  0  0
    5.3971    2.2500    0.0000 O   0  0  0  0  0  0  0  0  0  0  0  0
    3.1059    2.1528    0.0000 O   0  0  0  0  0  0  0  0  0  0  0  0
    3.8971    3.7500    0.0000 C   0  0  0  0  0  0  0  0  0  0  0  0
    5.3971    3.7500    0.0000 F   0  0  0  0  0  0  0  0  0  0  0  0
    3.8971    5.2500    0.0000 F   0  0  0  0  0  0  0  0  0  0  0  0
    2.3971    3.7500    0.0000 C   0  0  0  0  0  0  0  0  0  0  0  0
    2.2891    2.8709    0.0000 F   0  0  0  0  0  0  0  0  0  0  0  0
    2.3971    5.2500    0.0000 F   0  0  0  0  0  0  0  0  0  0  0  0
    0.8971    3.7500    0.0000 C   0  0  0  0  0  0  0  0  0  0  0  0
    0.8971    2.2500    0.0000 F   0  0  0  0  0  0  0  0  0  0  0  0
    0.8971    5.2500    0.0000 F   0  0  0  0  0  0  0  0  0  0  0  0
   -0.6029    3.7500    0.0000 C   0  0  0  0  0  0  0  0  0  0  0  0
   -0.6029    2.2500    0.0000 F   0  0  0  0  0  0  0  0  0  0  0  0
   -0.6029    5.2500    0.0000 F   0  0  0  0  0  0  0  0  0  0  0  0
   -2.1029    3.7500    0.0000 C   0  0  0  0  0  0  0  0  0  0  0  0
   -2.1029    2.2500    0.0000 F   0  0  0  0  0  0  0  0  0  0  0  0
   -2.1029    5.2500    0.0000 F   0  0  0  0  0  0  0  0  0  0  0  0
   -3.6029    3.7500    0.0000 C   0  0  0  0  0  0  0  0  0  0  0  0
   -3.6029    5.2500    0.0000 F   0  0  0  0  0  0  0  0  0  0  0  0
   -3.6029    2.2500    0.0000 F   0  0  0  0  0  0  0  0  0  0  0  0
   -5.1029    3.7500    0.0000 C   0  0  0  0  0  0  0  0  0  0  0  0
   -5.1029    2.2500    0.0000 F   0  0  0  0  0  0  0  0  0  0  0  0
   -5.1029    5.2500    0.0000 F   0  0  0  0  0  0  0  0  0  0  0  0
   -6.6029    3.7500    0.0000 C   0  0  0  0  0  0  0  0  0  0  0  0
   -8.1029    3.7500    0.0000 F   0  0  0  0  0  0  0  0  0  0  0  0
   -6.6029    5.2500    0.0000 F   0  0  0  0  0  0  0  0  0  0  0  0
   -6.6029    2.2500    0.0000 F   0  0  0  0  0  0  0  0  0  0  0  0
  1  2  1  0
  2  3  1  0
  3  4  1  0
  4  5  1  0
  5  6  1  0
  6  7  1  0
  4  8  1  0
  8  9  2  0
  8 10  2  0
  8 11  1  0
 11 12  1  0
 11 13  1  0
 11 14  1  0
 14 15  1  0
 14 16  1  0
 14 17  1  0
 17 18  1  0
 17 19  1  0
 17 20  1  0
 20 21  1  0
 20 22  1  0
 20 23  1  0
 23 24  1  0
 23 25  1  0
 23 26  1  0
 26 27  1  0
 26 28  1  0
 26 29  1  0
 29 30  1  0
 29 31  1  0
 29 32  1  0
 32 33  1  0
 32 34  1  0
 32 35  1  0
M  END
$$$$

     RDKit          2D

 18 19  0  0  0  0  0  0  0  0999 V2000
    0.2010   -3.3481    0.0000 F   0  0  0  0  0  0  0  0  0  0  0  0
    1.5000   -2.5981    0.0000 C   0  0  0  0  0  0  0  0  0  0  0  0
    2.7990   -1.8481    0.0000 F   0  0  0  0  0  0  0  0  0  0  0  0
    0.7500   -1.2990    0.0000 C   0  0  0  0  0  0  0  0  0  0  0  0
    1.5000    0.0000    0.0000 C   0  0  0  0  0  0  0  0  0  0  0  0
    0.7500    1.2990    0.0000 C   0  0  0  0  0  0  0  0  0  0  0  0
   -0.7500    1.2990    0.0000 C   0  0  0  0  0  0  0  0  0  0  0  0
   -1.5000    0.0000    0.0000 C   0  0  0  0  0  0  0  0  0  0  0  0
   -0.7500   -1.2990    0.0000 C   0  0  0  0  0  0  0  0  0  0  0  0
    2.2500   -3.8971    0.0000 C   0  0  0  0  0  0  0  0  0  0  0  0
    0.9510   -4.6471    0.0000 F   0  0  0  0  0  0  0  0  0  0  0  0
    3.5490   -3.1471    0.0000 F   0  0  0  0  0  0  0  0  0  0  0  0
    3.0000   -5.1962    0.0000 C   0  0  0  0  0  0  0  0  0  0  0  0
    2.2500   -6.4952    0.0000 C   0  0  0  0  0  0  0  0  0  0  0  0
    3.0000   -7.7942    0.0000 C   0  0  0  0  0  0  0  0  0  0  0  0
    4.5000   -7.7942    0.0000 C   0  0  0  0  0  0  0  0  0  0  0  0
    5.2500   -6.4952    0.0000 C   0  0  0  0  0  0  0  0  0  0  0  0
    4.5000   -5.1962    0.0000 C   0  0  0  0  0  0  0  0  0  0  0  0
  1  2  1  0
  2  3  1  0
  2  4  1  0
  4  5  2  0
  5  6  1  0
  6  7  2  0
  7  8  1  0
  8  9  2  0
  2 10  1  0
 10 11  1  0
 10 12  1  0
 10 13  1  0
 13 14  2  0
 14 15  1  0
 15 16  2  0
 16 17  1  0
 17 18  2  0
  9  4  1  0
 18 13  1  0
M  END
$$$$

     RDKit          2D

 33 32  0  0  0  0  0  0  0  0999 V2000
   -1.5000    0.0000    0.0000 F   0  0  0  0  0  0  0  0  0  0  0  0
    0.0000    0.0000    0.0000 C   0  0  0  0  0  0  0  0  0  0  0  0
    0.0000    1.5000    0.0000 F   0  0  0  0  0  0  0  0  0  0  0  0
   -0.0000   -1.5000    0.0000 F   0  0  0  0  0  0  0  0  0  0  0  0
    1.5000    0.0000    0.0000 C   0  0  0  0  0  0  0  0  0  0  0  0
    1.5000    1.5000    0.0000 F   0  0  0  0  0  0  0  0  0  0  0  0
    1.5000   -1.5000    0.0000 F   0  0  0  0  0  0  0  0  0  0  0  0
    3.0000    0.0000    0.0000 C   0  0  0  0  0  0  0  0  0  0  0  0
    3.0000   -1.5000    0.0000 F   0  0  0  0  0  0  0  0  0  0  0  0
    3.0000    1.5000    0.0000 F   0  0  0  0  0  0  0  0  0  0  0  0
    4.5000    0.0000    0.0000 C   0  0  0  0  0  0  0  0  0  0  0  0
    4.5000   -1.5000    0.0000 F   0  0  0  0  0  0  0  0  0  0  0  0
    4.5000    1.5000    0.0000 F   0  0  0  0  0  0  0  0  0  0  0  0
    6.0000    0.0000    0.0000 C   0  0  0  0  0  0  0  0  0  0  0  0
    6.0000    1.5000    0.0000 F   0  0  0  0  0  0  0  0  0  0  0  0
    6.0000   -1.5000    0.0000 F   0  0  0  0  0  0  0  0  0  0  0  0
    7.5000    0.0000    0.0000 O   0  0  0  0  0  0  0  0  0  0  0  0
    8.2500   -1.2990    0.0000 C   0  0  0  0  0  0  0  0  0  0  0  0
    6.9510   -2.0490    0.0000 F   0  0  0  0  0  0  0  0  0  0  0  0
    9.5490   -0.5490    0.0000 F   0  0  0  0  0  0  0  0  0  0  0  0
    9.0000   -2.5981    0.0000 C   0  0  0  0  0  0  0  0  0  0  0  0
   10.2990   -1.8481    0.0000 F   0  0  0  0  0  0  0  0  0  0  0  0
    7.7010   -3.3481    0.0000 F   0  0  0  0  0  0  0  0  0  0  0  0
    9.7500   -3.8971    0.0000 C   0  0  0  0  0  0  0  0  0  0  0  0
   11.0490   -3.1471    0.0000 F   0  0  0  0  0  0  0  0  0  0  0  0
    8.4510   -4.6471    0.0000 F   0  0  0  0  0  0  0  0  0  0  0  0
   10.5000   -5.1962    0.0000 C   0  0  0  0  0  0  0  0  0  0  0  0
    9.2010   -5.9462    0.0000 F   0  0  0  0  0  0  0  0  0  0  0  0
   11.7990   -4.4462    0.0000 F   0  0  0  0  0  0  0  0  0  0  0  0
   11.2500   -6.4952    0.0000 C   0  0  0  0  0  0  0  0  0  0  0  0
   12.0000   -7.7942    0.0000 F   0  0  0  0  0  0  0  0  0  0  0  0
   12.5490   -5.7452    0.0000 F   0  0  0  0  0  0  0  0  0  0  0  0
    9.9510   -7.2452    0.0000 F   0  0  0  0  0  0  0  0  0  0  0  0
  1  2  1  0
  2  3  1  0
  2  4  1  0
  2  5  1  0
  5  6  1  0
  5  7  1  0
  5  8  1  0
  8  9  1  0
  8 10  1  0
  8 11  1  0
 11 12  1  0
 11 13  1  0
 11 14  1  0
 14 15  1  0
 14 16  1  0
 14 17  1  0
 17 18  1  0
 18 19  1  0
 18 20  1  0
 18 21  1  0
 21 22  1  0
 21 23  1  0
 21 24  1  0
 24 25  1  0
 24 26  1  0
 24 27  1  0
 27 28  1  0
 27 29  1  0
 27 30  1  0
 30 31  1  0
 30 32  1  0
 30 33  1  0
M  END
$$$$

     RDKit          2D

 35 35  0  0  0  0  0  0  0  0999 V2000
    5.0490   -0.5490    0.0000 O   0  0  0  0  0  0  0  0  0  0  0  0
    3.7500   -1.2990    0.0000 S   0  0  0  0  0  0  0  0  0  0  0  0
    3.0162   -1.6105    0.0000 O   0  0  0  0  0  0  0  0  0  0  0  0
    3.0000   -0.0000    0.0000 N   0  0  0  0  0  0  0  0  0  0  0  0
    3.7500    1.2990    0.0000 C   0  0  0  0  0  0  0  0  0  0  0  0
    5.2500    1.2990    0.0000 C   0  0  0  0  0  0  0  0  0  0  0  0
    6.0000    2.5981    0.0000 C   0  0  0  0  0  0  0  0  0  0  0  0
    5.2500    3.8971    0.0000 C   0  0  0  0  0  0  0  0  0  0  0  0
    3.7500    3.8971    0.0000 C   0  0  0  0  0  0  0  0  0  0  0  0
    3.0000    2.5981    0.0000 C   0  0  0  0  0  0  0  0  0  0  0  0
    4.5000   -2.5981    0.0000 C   0  0  0  0  0  0  0  0  0  0  0  0
    5.7990   -1.8481    0.0000 F   0  0  0  0  0  0  0  0  0  0  0  0
    5.2500   -3.8971    0.0000 F   0  0  0  0  0  0  0  0  0  0  0  0
    3.2010   -3.3481    0.0000 C   0  0  0  0  0  0  0  0  0  0  0  0
    2.6679   -2.6407    0.0000 F   0  0  0  0  0  0  0  0  0  0  0  0
    3.9510   -4.6471    0.0000 F   0  0  0  0  0  0  0  0  0  0  0  0
    1.9019   -4.0981    0.0000 C   0  0  0  0  0  0  0  0  0  0  0  0
    1.1519   -2.7990    0.0000 F   0  0  0  0  0  0  0  0  0  0  0  0
    2.6519   -5.3971    0.0000 F   0  0  0  0  0  0  0  0  0  0  0  0
    0.6029   -4.8481    0.0000 C   0  0  0  0  0  0  0  0  0  0  0  0
   -0.1471   -3.5490    0.0000 F   0  0  0  0  0  0  0  0  0  0  0  0
    1.3529   -6.1471    0.0000 F   0  0  0  0  0  0  0  0  0  0  0  0
   -0.6962   -5.5981    0.0000 C   0  0  0  0  0  0  0  0  0  0  0  0
   -1.4462   -4.2990    0.0000 F   0  0  0  0  0  0  0  0  0  0  0  0
    0.0538   -6.8971    0.0000 F   0  0  0  0  0  0  0  0  0  0  0  0
   -1.9952   -6.3481    0.0000 C   0  0  0  0  0  0  0  0  0  0  0  0
   -1.2452   -7.6471    0.0000 F   0  0  0  0  0  0  0  0  0  0  0  0
   -2.7452   -5.0490    0.0000 F   0  0  0  0  0  0  0  0  0  0  0  0
   -3.2942   -7.0981    0.0000 C   0  0  0  0  0  0  0  0  0  0  0  0
   -4.0442   -5.7990    0.0000 F   0  0  0  0  0  0  0  0  0  0  0  0
   -2.5442   -8.3971    0.0000 F   0  0  0  0  0  0  0  0  0  0  0  0
   -4.5933   -7.8481    0.0000 C   0  0  0  0  0  0  0  0  0  0  0  0
   -5.8923   -8.5981    0.0000 F   0  0  0  0  0  0  0  0  0  0  0  0
   -3.8433   -9.1471    0.0000 F   0  0  0  0  0  0  0  0  0  0  0  0
   -5.3433   -6.5490    0.0000 F   0  0  0  0  0  0  0  0  0  0  0  0
  1  2  2  0
  2  3  2  0
  2  4  1  0
  4  5  1  0
  5  6  2  0
  6  7  1  0
  7  8  2  0
  8  9  1  0
  9 10  2  0
  2 11  1  0
 11 12  1  0
 11 13  1  0
 11 14  1  0
 14 15  1  0
 14 16  1  0
 14 17  1  0
 17 18  1  0
 17 19  1  0
 17 20  1  0
 20 21  1  0
 20 22  1  0
 20 23  1  0
 23 24  1  0
 23 25  1  0
 23 26  1  0
 26 27  1  0
 26 28  1  0
 26 29  1  0
 29 30  1  0
 29 31  1  0
 29 32  1  0
 32 33  1  0
 32 34  1  0
 32 35  1  0
 10  5  1  0
M  END
$$$$

     RDKit          2D

 13 12  0  0  0  0  0  0  0  0999 V2000
   -1.2990    0.7500    0.0000 F   0  0  0  0  0  0  0  0  0  0  0  0
    0.0000    0.0000    0.0000 C   0  0  0  0  0  0  0  0  0  0  0  0
   -0.0000   -1.5000    0.0000 F   0  0  0  0  0  0  0  0  0  0  0  0
    1.2990    0.7500    0.0000 C   0  0  0  0  0  0  0  0  0  0  0  0
    1.2990    2.2500    0.0000 F   0  0  0  0  0  0  0  0  0  0  0  0
    2.5981   -0.0000    0.0000 O   0  0  0  0  0  0  0  0  0  0  0  0
    3.8971    0.7500    0.0000 C   0  0  0  0  0  0  0  0  0  0  0  0
    3.1471    2.0490    0.0000 F   0  0  0  0  0  0  0  0  0  0  0  0
    4.6471   -0.5490    0.0000 F   0  0  0  0  0  0  0  0  0  0  0  0
    5.1962    1.5000    0.0000 C   0  0  0  0  0  0  0  0  0  0  0  0
    6.4952    2.2500    0.0000 F   0  0  0  0  0  0  0  0  0  0  0  0
    4.4462    2.7990    0.0000 F   0  0  0  0  0  0  0  0  0  0  0  0
    5.9462    0.2010    0.0000 Cl  0  0  0  0  0  0  0  0  0  0  0  0
  1  2  1  0
  2  3  1  0
  2  4  2  0
  4  5  1  0
  4  6  1  0
  6  7  1  0
  7  8  1  0
  7  9  1  0
  7 10  1  0
 10 11  1  0
 10 12  1  0
 10 13  1  0
M  END
$$$$

     RDKit          2D

 38 37  0  0  0  0  0  0  0  0999 V2000
   -3.3481    1.2990    0.0000 O   0  0  0  0  0  0  0  0  0  0  0  0
   -2.5981    0.0000    0.0000 P   0  0  0  0  0  0  0  0  0  0  0  0
   -1.8481   -1.2990    0.0000 O   0  0  0  0  0  0  0  0  0  0  0  0
   -3.8971   -0.7500    0.0000 O   0  0  0  0  0  0  0  0  0  0  0  0
   -1.2990    0.7500    0.0000 O   0  0  0  0  0  0  0  0  0  0  0  0
    0.0000    0.0000    0.0000 C   0  0  0  0  0  0  0  0  0  0  0  0
    1.2990    0.7500    0.0000 C   0  0  0  0  0  0  0  0  0  0  0  0
    2.5981   -0.0000    0.0000 C   0  0  0  0  0  0  0  0  0  0  0  0
    3.3481    1.2990    0.0000 F   0  0  0  0  0  0  0  0  0  0  0  0
    1.8481   -1.2990    0.0000 F   0  0  0  0  0  0  0  0  0  0  0  0
    3.8971   -0.7500    0.0000 C   0  0  0  0  0  0  0  0  0  0  0  0
    3.1471   -2.0490    0.0000 F   0  0  0  0  0  0  0  0  0  0  0  0
    4.6471    0.5490    0.0000 F   0  0  0  0  0  0  0  0  0  0  0  0
    5.1962   -1.5000    0.0000 C   0  0  0  0  0  0  0  0  0  0  0  0
    5.9462   -0.2010    0.0000 F   0  0  0  0  0  0  0  0  0  0  0  0
    4.4462   -2.7990    0.0000 F   0  0  0  0  0  0  0  0  0  0  0  0
    6.4952   -2.2500    0.0000 C   0  0  0  0  0  0  0  0  0  0  0  0
    5.7452   -3.5490    0.0000 F   0  0  0  0  0  0  0  0  0  0  0  0
    7.2452   -0.9510    0.0000 F   0  0  0  0  0  0  0  0  0  0  0  0
    7.7942   -3.0000    0.0000 C   0  0  0  0  0  0  0  0  0  0  0  0
    8.5442   -1.7010    0.0000 F   0  0  0  0  0  0  0  0  0  0  0  0
    7.0442   -4.2990    0.0000 F   0  0  0  0  0  0  0  0  0  0  0  0
    9.0933   -3.7500    0.0000 C   0  0  0  0  0  0  0  0  0  0  0  0
    8.3433   -5.0490    0.0000 F   0  0  0  0  0  0  0  0  0  0  0  0
    9.8433   -2.4510    0.0000 F   0  0  0  0  0  0  0  0  0  0  0  0
   10.3923   -4.5000    0.0000 C   0  0  0  0  0  0  0  0  0  0  0  0
   11.1423   -3.2010    0.0000 F   0  0  0  0  0  0  0  0  0  0  0  0
    9.6423   -5.7990    0.0000 F   0  0  0  0  0  0  0  0  0  0  0  0
   11.6913   -5.2500    0.0000 C   0  0  0  0  0  0  0  0  0  0  0  0
   10.9413   -6.5490    0.0000 F   0  0  0  0  0  0  0  0  0  0  0  0
   12.4413   -3.9510    0.0000 F   0  0  0  0  0  0  0  0  0  0  0  0
   12.9904   -6.0000    0.0000 C   0  0  0  0  0  0  0  0  0  0  0  0
   13.7404   -4.7010    0.0000 F   0  0  0  0  0  0  0  0  0  0  0  0
   12.2404   -7.2990    0.0000 F   0  0  0  0  0  0  0  0  0  0  0  0
   14.2894   -6.7500    0.0000 C   0  0  0  0  0  0  0  0  0  0  0  0
   15.5885   -7.5000    0.0000 F   0  0  0  0  0  0  0  0  0  0  0  0
   13.5394   -8.0490    0.0000 F   0  0  0  0  0  0  0  0  0  0  0  0
   15.0394   -5.4510    0.0000 F   0  0  0  0  0  0  0  0  0  0  0  0
  1  2  2  0
  2  3  1  0
  2  4  1  0
  2  5  1  0
  5  6  1  0
  6  7  1  0
  7  8  1  0
  8  9  1  0
  8 10  1  0
  8 11  1  0
 11 12  1  0
 11 13  1  0
 11 14  1  0
 14 15  1  0
 14 16  1  0
 14 17  1  0
 17 18  1  0
 17 19  1  0
 17 20  1  0
 20 21  1  0
 20 22  1  0
 20 23  1  0
 23 24  1  0
 23 25  1  0
 23 26  1  0
 26 27  1  0
 26 28  1  0
 26 29  1  0
 29 30  1  0
 29 31  1  0
 29 32  1  0
 32 33  1  0
 32 34  1  0
 32 35  1  0
 35 36  1  0
 35 37  1  0
 35 38  1  0
M  END
$$$$

     RDKit          2D

 17 18  0  0  0  0  0  0  0  0999 V2000
   -0.0000   -8.1073    0.0000 F   0  0  0  0  0  0  0  0  0  0  0  0
   -0.0000   -6.6073    0.0000 C   0  0  0  0  0  0  0  0  0  0  0  0
    1.5000   -6.6073    0.0000 F   0  0  0  0  0  0  0  0  0  0  0  0
   -1.5000   -6.6073    0.0000 F   0  0  0  0  0  0  0  0  0  0  0  0
   -0.0000   -5.1073    0.0000 C   0  0  0  0  0  0  0  0  0  0  0  0
   -1.5000   -5.1073    0.0000 F   0  0  0  0  0  0  0  0  0  0  0  0
    1.5000   -5.1073    0.0000 F   0  0  0  0  0  0  0  0  0  0  0  0
   -0.0000   -3.6073    0.0000 C   0  0  0  0  0  0  0  0  0  0  0  0
    1.2135   -2.7256    0.0000 N   0  0  0  0  0  0  0  0  0  0  0  0
    0.7500   -1.2990    0.0000 C   0  0  0  0  0  0  0  0  0  0  0  0
    1.5000    0.0000    0.0000 C   0  0  0  0  0  0  0  0  0  0  0  0
    0.7500    1.2990    0.0000 C   0  0  0  0  0  0  0  0  0  0  0  0
   -0.7500    1.2990    0.0000 C   0  0  0  0  0  0  0  0  0  0  0  0
   -1.5000    2.5981    0.0000 Cl  0  0  0  0  0  0  0  0  0  0  0  0
   -1.5000    0.0000    0.0000 C   0  0  0  0  0  0  0  0  0  0  0  0
   -0.7500   -1.2990    0.0000 C   0  0  0  0  0  0  0  0  0  0  0  0
   -1.2135   -2.7256    0.0000 N   0  0  0  0  0  0  0  0  0  0  0  0
  1  2  1  0
  2  3  1  0
  2  4  1  0
  2  5  1  0
  5  6  1  0
  5  7  1  0
  5  8  1  0
  8  9  2  0
  9 10  1  0
 10 11  2  0
 11 12  1  0
 12 13  2  0
 13 14  1  0
 13 15  1  0
 15 16  2  0
 16 17  1  0
 17  8  1  0
 16 10  1  0
M  END
$$$$

     RDKit          2D

 20 19  0  0  0  0  0  0  0  0999 V2000
    0.0000    0.0000    0.0000 C   0  0  0  0  0  0  0  0  0  0  0  0
    1.2990    0.7500    0.0000 C   0  0  0  0  0  0  0  0  0  0  0  0
    2.5981   -0.0000    0.0000 C   0  0  0  0  0  0  0  0  0  0  0  0
    1.2990    2.2500    0.0000 C   0  0  0  0  0  0  0  0  0  0  0  0
    0.0000    3.0000    0.0000 O   0  0  0  0  0  0  0  0  0  0  0  0
    2.5981    3.0000    0.0000 O   0  0  0  0  0  0  0  0  0  0  0  0
    2.5981    4.5000    0.0000 C   0  0  0  0  0  0  0  0  0  0  0  0
    3.8971    5.2500    0.0000 C   0  0  0  0  0  0  0  0  0  0  0  0
    3.1471    6.5490    0.0000 F   0  0  0  0  0  0  0  0  0  0  0  0
    4.6471    3.9510    0.0000 F   0  0  0  0  0  0  0  0  0  0  0  0
    5.1962    6.0000    0.0000 C   0  0  0  0  0  0  0  0  0  0  0  0
    5.9462    4.7010    0.0000 F   0  0  0  0  0  0  0  0  0  0  0  0
    4.4462    7.2990    0.0000 F   0  0  0  0  0  0  0  0  0  0  0  0
    6.4952    6.7500    0.0000 C   0  0  0  0  0  0  0  0  0  0  0  0
    5.7452    8.0490    0.0000 F   0  0  0  0  0  0  0  0  0  0  0  0
    7.2452    5.4510    0.0000 F   0  0  0  0  0  0  0  0  0  0  0  0
    7.7942    7.5000    0.0000 C   0  0  0  0  0  0  0  0  0  0  0  0
    9.0933    8.2500    0.0000 F   0  0  0  0  0  0  0  0  0  0  0  0
    8.5442    6.2010    0.0000 F   0  0  0  0  0  0  0  0  0  0  0  0
    7.0442    8.7990    0.0000 F   0  0  0  0  0  0  0  0  0  0  0  0
  1  2  2  0
  2  3  1  0
  2  4  1  0
  4  5  2  0
  4  6  1  0
  6  7  1  0
  7  8  1  0
  8  9  1  0
  8 10  1  0
  8 11  1  0
 11 12  1  0
 11 13  1  0
 11 14  1  0
 14 15  1  0
 14 16  1  0
 14 17  1  0
 17 18  1  0
 17 19  1  0
 17 20  1  0
M  END
$$$$

     RDKit          2D

 38 37  0  0  0  0  0  0  0  0999 V2000
    3.0000   -1.5000    0.0000 O   0  0  0  0  0  0  0  0  0  0  0  0
    3.0000    0.0000    0.0000 S   0  0  0  0  0  0  0  0  0  0  0  0
    3.0000    1.5000    0.0000 O   0  0  0  0  0  0  0  0  0  0  0  0
    4.5000    0.0000    0.0000 O   0  0  0  0  0  0  0  0  0  0  0  0
    1.5000    0.0000    0.0000 C   0  0  0  0  0  0  0  0  0  0  0  0
    0.7500   -1.2990    0.0000 C   0  0  0  0  0  0  0  0  0  0  0  0
   -0.7500   -1.2990    0.0000 C   0  0  0  0  0  0  0  0  0  0  0  0
   -1.5000    0.0000    0.0000 C   0  0  0  0  0  0  0  0  0  0  0  0
   -3.0000    0.0000    0.0000 O   0  0  0  0  0  0  0  0  0  0  0  0
   -3.7500    1.2990    0.0000 C   0  0  0  0  0  0  0  0  0  0  0  0
   -2.4510    2.0490    0.0000 F   0  0  0  0  0  0  0  0  0  0  0  0
   -5.0490    0.5490    0.0000 F   0  0  0  0  0  0  0  0  0  0  0  0
   -4.5000    2.5981    0.0000 C   0  0  0  0  0  0  0  0  0  0  0  0
   -6.0000    2.5981    0.0000 F   0  0  0  0  0  0  0  0  0  0  0  0
   -3.7500    3.8971    0.0000 C   0  0  0  0  0  0  0  0  0  0  0  0
   -2.2500    3.8971    0.0000 F   0  0  0  0  0  0  0  0  0  0  0  0
   -4.5000    5.1962    0.0000 C   0  0  0  0  0  0  0  0  0  0  0  0
   -3.2010    5.9462    0.0000 F   0  0  0  0  0  0  0  0  0  0  0  0
   -5.7990    4.4462    0.0000 F   0  0  0  0  0  0  0  0  0  0  0  0
   -5.2500    6.4952    0.0000 C   0  0  0  0  0  0  0  0  0  0  0  0
   -6.5490    5.7452    0.0000 F   0  0  0  0  0  0  0  0  0  0  0  0
   -3.9510    7.2452    0.0000 F   0  0  0  0  0  0  0  0  0  0  0  0
   -6.0000    7.7942    0.0000 C   0  0  0  0  0  0  0  0  0  0  0  0
   -4.7010    8.5442    0.0000 F   0  0  0  0  0  0  0  0  0  0  0  0
   -7.2990    7.0442    0.0000 F   0  0  0  0  0  0  0  0  0  0  0  0
   -6.7500    9.0933    0.0000 C   0  0  0  0  0  0  0  0  0  0  0  0
   -8.0490    8.3433    0.0000 F   0  0  0  0  0  0  0  0  0  0  0  0
   -5.4510    9.8433    0.0000 F   0  0  0  0  0  0  0  0  0  0  0  0
   -7.5000   10.3923    0.0000 C   0  0  0  0  0  0  0  0  0  0  0  0
   -6.2010   11.1423    0.0000 F   0  0  0  0  0  0  0  0  0  0  0  0
   -8.7990    9.6423    0.0000 F   0  0  0  0  0  0  0  0  0  0  0  0
   -8.2500   11.6913    0.0000 C   0  0  0  0  0  0  0  0  0  0  0  0
   -9.0000   12.9904    0.0000 F   0  0  0  0  0  0  0  0  0  0  0  0
   -9.5490   10.9413    0.0000 F   0  0  0  0  0  0  0  0  0  0  0  0
   -6.9510   12.4413    0.0000 F   0  0  0  0  0  0  0  0  0  0  0  0
   -0.7500    1.2990    0.0000 C   0  0  0  0  0  0  0  0  0  0  0  0
    0.7500    1.2990    0.0000 C   0  0  0  0  0  0  0  0  0  0  0  0
    5.5000    0.0000    0.0000 Na  0  0  0  0  0 15  0  0  0  0  0  0
  1  2  2  0
  2  3  2  0
  2  4  1  0
  2  5  1  0
  5  6  2  0
  6  7  1  0
  7  8  2  0
  8  9  1  0
  9 10  1  0
 10 11  1  0
 10 12  1  0
 10 13  1  0
 13 14  1  0
 13 15  2  3
 15 16  1  0
 15 17  1  0
 17 18  1  0
 17 19  1  0
 17 20  1  0
 20 21  1  0
 20 22  1  0
 20 23  1  0
 23 24  1  0
 23 25  1  0
 23 26  1  0
 26 27  1  0
 26 28  1  0
 26 29  1  0
 29 30  1  0
 29 31  1  0
 29 32  1  0
 32 33  1  0
 32 34  1  0
 32 35  1  0
  8 36  1  0
 36 37  2  0
 37  5  1  0
M  CHG  2   4  -1  38   1
M  END
$$$$

     RDKit          2D

 13 12  0  0  0  0  0  0  0  0999 V2000
   -1.2990    0.7500    0.0000 F   0  0  0  0  0  0  0  0  0  0  0  0
    0.0000    0.0000    0.0000 C   0  0  0  0  0  0  0  0  0  0  0  0
   -0.0000   -1.5000    0.0000 F   0  0  0  0  0  0  0  0  0  0  0  0
    1.2990    0.7500    0.0000 C   0  0  0  0  0  0  0  0  0  0  0  0
    1.2990    2.2500    0.0000 F   0  0  0  0  0  0  0  0  0  0  0  0
    2.5981   -0.0000    0.0000 O   0  0  0  0  0  0  0  0  0  0  0  0
    3.8971    0.7500    0.0000 C   0  0  0  0  0  0  0  0  0  0  0  0
    3.1471    2.0490    0.0000 F   0  0  0  0  0  0  0  0  0  0  0  0
    4.6471   -0.5490    0.0000 F   0  0  0  0  0  0  0  0  0  0  0  0
    5.1962    1.5000    0.0000 C   0  0  0  0  0  0  0  0  0  0  0  0
    6.4952    2.2500    0.0000 F   0  0  0  0  0  0  0  0  0  0  0  0
    4.4462    2.7990    0.0000 F   0  0  0  0  0  0  0  0  0  0  0  0
    5.9462    0.2010    0.0000 I   0  0  0  0  0  0  0  0  0  0  0  0
  1  2  1  0
  2  3  1  0
  2  4  2  0
  4  5  1  0
  4  6  1  0
  6  7  1  0
  7  8  1  0
  7  9  1  0
  7 10  1  0
 10 11  1  0
 10 12  1  0
 10 13  1  0
M  END
$$$$

     RDKit          2D

 11 11  0  0  0  0  0  0  0  0999 V2000
    2.5607    0.0000    0.0000 O   0  0  0  0  0  0  0  0  0  0  0  0
    1.0607    0.0000    0.0000 C   0  0  0  0  0  0  0  0  0  0  0  0
   -0.0000   -1.0607    0.0000 C   0  0  0  0  0  0  0  0  0  0  0  0
    1.0607   -2.1213    0.0000 F   0  0  0  0  0  0  0  0  0  0  0  0
   -1.0607   -2.1213    0.0000 F   0  0  0  0  0  0  0  0  0  0  0  0
   -1.0607    0.0000    0.0000 C   0  0  0  0  0  0  0  0  0  0  0  0
   -2.1213   -1.0607    0.0000 F   0  0  0  0  0  0  0  0  0  0  0  0
   -2.1213    1.0607    0.0000 F   0  0  0  0  0  0  0  0  0  0  0  0
    0.0000    1.0607    0.0000 C   0  0  0  0  0  0  0  0  0  0  0  0
   -1.0607    2.1213    0.0000 F   0  0  0  0  0  0  0  0  0  0  0  0
    1.0607    2.1213    0.0000 F   0  0  0  0  0  0  0  0  0  0  0  0
  1  2  2  0
  2  3  1  0
  3  4  1  0
  3  5  1  0
  3  6  1  0
  6  7  1  0
  6  8  1  0
  6  9  1  0
  9 10  1  0
  9 11  1  0
  9  2  1  0
M  END
$$$$

     RDKit          2D

 18 18  0  0  0  0  0  0  0  0999 V2000
    4.5000    0.0000    0.0000 F   0  0  0  0  0  0  0  0  0  0  0  0
    3.0000    0.0000    0.0000 C   0  0  0  0  0  0  0  0  0  0  0  0
    3.0000   -1.5000    0.0000 F   0  0  0  0  0  0  0  0  0  0  0  0
    3.0000    1.5000    0.0000 F   0  0  0  0  0  0  0  0  0  0  0  0
    1.5000    0.0000    0.0000 C   0  0  0  0  0  0  0  0  0  0  0  0
    0.7500   -1.2990    0.0000 C   0  0  0  0  0  0  0  0  0  0  0  0
   -0.7500   -1.2990    0.0000 C   0  0  0  0  0  0  0  0  0  0  0  0
   -1.5000    0.0000    0.0000 C   0  0  0  0  0  0  0  0  0  0  0  0
   -3.0000    0.0000    0.0000 C   0  0  0  0  0  0  0  0  0  0  0  0
   -3.0000    1.5000    0.0000 F   0  0  0  0  0  0  0  0  0  0  0  0
   -3.0000   -1.5000    0.0000 F   0  0  0  0  0  0  0  0  0  0  0  0
   -4.5000    0.0000    0.0000 C   0  0  0  0  0  0  0  0  0  0  0  0
   -6.0000    0.0000    0.0000 F   0  0  0  0  0  0  0  0  0  0  0  0
   -4.5000   -1.5000    0.0000 F   0  0  0  0  0  0  0  0  0  0  0  0
   -4.5000    1.5000    0.0000 Cl  0  0  0  0  0  0  0  0  0  0  0  0
   -0.7500    1.2990    0.0000 C   0  0  0  0  0  0  0  0  0  0  0  0
   -1.5000    2.5981    0.0000 Cl  0  0  0  0  0  0  0  0  0  0  0  0
    0.7500    1.2990    0.0000 C   0  0  0  0  0  0  0  0  0  0  0  0
  1  2  1  0
  2  3  1  0
  2  4  1  0
  2  5  1  0
  5  6  2  0
  6  7  1  0
  7  8  2  0
  8  9  1  0
  9 10  1  0
  9 11  1  0
  9 12  1  0
 12 13  1  0
 12 14  1  0
 12 15  1  0
  8 16  1  0
 16 17  1  0
 16 18  2  0
 18  5  1  0
M  END
$$$$

     RDKit          2D

 19 19  0  0  0  0  0  0  0  0999 V2000
   11.2500    1.2990    0.0000 F   0  0  0  0  0  0  0  0  0  0  0  0
   10.5000    2.5981    0.0000 C   0  0  0  0  0  0  0  0  0  0  0  0
   11.2500    3.8971    0.0000 F   0  0  0  0  0  0  0  0  0  0  0  0
    9.0000    2.5981    0.0000 C   0  0  0  0  0  0  0  0  0  0  0  0
    9.0000    1.0981    0.0000 F   0  0  0  0  0  0  0  0  0  0  0  0
    9.0000    4.0981    0.0000 F   0  0  0  0  0  0  0  0  0  0  0  0
    7.5000    2.5981    0.0000 O   0  0  0  0  0  0  0  0  0  0  0  0
    6.7500    1.2990    0.0000 C   0  0  0  0  0  0  0  0  0  0  0  0
    5.2500    1.2990    0.0000 C   0  0  0  0  0  0  0  0  0  0  0  0
    4.5000    0.0000    0.0000 C   0  0  0  0  0  0  0  0  0  0  0  0
    3.0000    0.0000    0.0000 Si  0  0  0  0  0  4  0  0  0  0  0  0
    3.0000    1.5000    0.0000 Cl  0  0  0  0  0  0  0  0  0  0  0  0
    3.0000   -1.5000    0.0000 Cl  0  0  0  0  0  0  0  0  0  0  0  0
    1.5000    0.0000    0.0000 C   0  0  0  0  0  0  0  0  0  0  0  0
    0.7500   -1.2990    0.0000 C   0  0  0  0  0  0  0  0  0  0  0  0
   -0.7500   -1.2990    0.0000 C   0  0  0  0  0  0  0  0  0  0  0  0
   -1.5000    0.0000    0.0000 C   0  0  0  0  0  0  0  0  0  0  0  0
   -0.7500    1.2990    0.0000 C   0  0  0  0  0  0  0  0  0  0  0  0
    0.7500    1.2990    0.0000 C   0  0  0  0  0  0  0  0  0  0  0  0
  1  2  1  0
  2  3  1  0
  2  4  1  0
  4  5  1  0
  4  6  1  0
  4  7  1  0
  7  8  1  0
  8  9  1  0
  9 10  1  0
 10 11  1  0
 11 12  1  0
 11 13  1  0
 11 14  1  0
 14 15  2  0
 15 16  1  0
 16 17  2  0
 17 18  1  0
 18 19  2  0
 19 14  1  0
M  END
$$$$

     RDKit          2D

 25 27  0  0  0  0  0  0  0  0999 V2000
   -0.1430   -9.7958    0.0000 C   0  0  0  0  0  0  0  0  0  0  0  0
    0.8606   -8.6811    0.0000 C   0  0  0  0  0  0  0  0  0  0  0  0
    2.3524   -8.8379    0.0000 C   0  0  0  0  0  0  0  0  0  0  0  0
    2.9625   -7.4676    0.0000 C   0  0  0  0  0  0  0  0  0  0  0  0
    4.4298   -7.1557    0.0000 C   0  0  0  0  0  0  0  0  0  0  0  0
    4.7416   -8.6229    0.0000 F   0  0  0  0  0  0  0  0  0  0  0  0
    4.1179   -5.6885    0.0000 F   0  0  0  0  0  0  0  0  0  0  0  0
    5.8970   -6.8438    0.0000 C   0  0  0  0  0  0  0  0  0  0  0  0
    6.3605   -5.4172    0.0000 F   0  0  0  0  0  0  0  0  0  0  0  0
    6.9007   -7.9586    0.0000 F   0  0  0  0  0  0  0  0  0  0  0  0
    1.8478   -6.4639    0.0000 N   0  0  0  0  0  0  0  0  0  0  0  0
    2.0046   -4.9721    0.0000 C   0  0  0  0  0  0  0  0  0  0  0  0
    0.8899   -3.9684    0.0000 N   0  0  0  0  0  0  0  0  0  0  0  0
    1.5000   -2.5981    0.0000 C   0  0  0  0  0  0  0  0  0  0  0  0
    0.7500   -1.2990    0.0000 C   0  0  0  0  0  0  0  0  0  0  0  0
    1.5000    0.0000    0.0000 C   0  0  0  0  0  0  0  0  0  0  0  0
    0.7500    1.2990    0.0000 C   0  0  0  0  0  0  0  0  0  0  0  0
   -0.7500    1.2990    0.0000 C   0  0  0  0  0  0  0  0  0  0  0  0
   -1.5000    2.5981    0.0000 O   0  0  0  0  0  0  0  0  0  0  0  0
   -1.5000    0.0000    0.0000 C   0  0  0  0  0  0  0  0  0  0  0  0
   -3.0000    0.0000    0.0000 O   0  0  0  0  0  0  0  0  0  0  0  0
   -0.7500   -1.2990    0.0000 C   0  0  0  0  0  0  0  0  0  0  0  0
    2.9918   -2.7549    0.0000 C   0  0  0  0  0  0  0  0  0  0  0  0
    3.3037   -4.2221    0.0000 S   0  0  0  0  0  0  0  0  0  0  0  0
    0.5488   -7.2139    0.0000 N   0  0  0  0  0  0  0  0  0  0  0  0
  1  2  1  0
  2  3  1  0
  3  4  2  0
  4  5  1  0
  5  6  1  0
  5  7  1  0
  5  8  1  0
  8  9  1  0
  8 10  1  0
  4 11  1  0
 11 12  1  0
 12 13  2  0
 13 14  1  0
 14 15  1  0
 15 16  2  0
 16 17  1  0
 17 18  2  0
 18 19  1  0
 18 20  1  0
 20 21  1  0
 20 22  2  0
 14 23  2  0
 23 24  1  0
 11 25  1  0
 25  2  2  0
 24 12  1  0
 22 15  1  0
M  END
$$$$

     RDKit          2D

 10  9  0  0  0  0  0  0  0  0999 V2000
   -0.0000   -1.5000    0.0000 O   0  0  0  0  0  0  0  0  0  0  0  0
    0.0000    0.0000    0.0000 C   0  0  0  0  0  0  0  0  0  0  0  0
   -1.2990    0.7500    0.0000 O   0  0  0  0  0  0  0  0  0  0  0  0
    1.2990    0.7500    0.0000 C   0  0  0  0  0  0  0  0  0  0  0  0
    2.0490   -0.5490    0.0000 F   0  0  0  0  0  0  0  0  0  0  0  0
    0.5490    2.0490    0.0000 F   0  0  0  0  0  0  0  0  0  0  0  0
    2.5981    1.5000    0.0000 O   0  0  0  0  0  0  0  0  0  0  0  0
    2.5981    3.0000    0.0000 C   0  0  0  0  0  0  0  0  0  0  0  0
    3.8971    3.7500    0.0000 F   0  0  0  0  0  0  0  0  0  0  0  0
    1.2990    3.7500    0.0000 F   0  0  0  0  0  0  0  0  0  0  0  0
  1  2  2  0
  2  3  1  0
  2  4  1  0
  4  5  1  0
  4  6  1  0
  4  7  1  0
  7  8  1  0
  8  9  1  0
  8 10  1  0
M  END
$$$$

     RDKit          2D

 43 42  0  0  0  0  0  0  0  0999 V2000
   -9.0933    5.2500    0.0000 F   0  0  0  0  0  0  0  0  0  0  0  0
   -7.7942    4.5000    0.0000 C   0  0  0  0  0  0  0  0  0  0  0  0
   -7.0442    5.7990    0.0000 F   0  0  0  0  0  0  0  0  0  0  0  0
   -8.5442    3.2010    0.0000 F   0  0  0  0  0  0  0  0  0  0  0  0
   -6.4952    3.7500    0.0000 C   0  0  0  0  0  0  0  0  0  0  0  0
   -7.2452    2.4510    0.0000 F   0  0  0  0  0  0  0  0  0  0  0  0
   -5.7452    5.0490    0.0000 F   0  0  0  0  0  0  0  0  0  0  0  0
   -5.1962    3.0000    0.0000 C   0  0  0  0  0  0  0  0  0  0  0  0
   -4.4462    4.2990    0.0000 F   0  0  0  0  0  0  0  0  0  0  0  0
   -5.9462    1.7010    0.0000 F   0  0  0  0  0  0  0  0  0  0  0  0
   -3.8971    2.2500    0.0000 C   0  0  0  0  0  0  0  0  0  0  0  0
   -4.6471    0.9510    0.0000 F   0  0  0  0  0  0  0  0  0  0  0  0
   -3.1471    3.5490    0.0000 F   0  0  0  0  0  0  0  0  0  0  0  0
   -2.5981    1.5000    0.0000 C   0  0  0  0  0  0  0  0  0  0  0  0
   -1.8481    2.7990    0.0000 F   0  0  0  0  0  0  0  0  0  0  0  0
   -3.3481    0.2010    0.0000 F   0  0  0  0  0  0  0  0  0  0  0  0
   -1.2990    0.7500    0.0000 C   0  0  0  0  0  0  0  0  0  0  0  0
   -2.0490   -0.5490    0.0000 F   0  0  0  0  0  0  0  0  0  0  0  0
   -0.5490    2.0490    0.0000 F   0  0  0  0  0  0  0  0  0  0  0  0
    0.0000    0.0000    0.0000 C   0  0  0  0  0  0  0  0  0  0  0  0
    1.2990    0.7500    0.0000 C   0  0  0  0  0  0  0  0  0  0  0  0
    2.5981   -0.0000    0.0000 O   0  0  0  0  0  0  0  0  0  0  0  0
    3.8971    0.7500    0.0000 C   0  0  0  0  0  0  0  0  0  0  0  0
    5.1962   -0.0000    0.0000 C   0  0  0  0  0  0  0  0  0  0  0  0
    6.4952    0.7500    0.0000 C   0  0  0  0  0  0  0  0  0  0  0  0
    7.2452   -0.5490    0.0000 F   0  0  0  0  0  0  0  0  0  0  0  0
    5.7452    2.0490    0.0000 F   0  0  0  0  0  0  0  0  0  0  0  0
    7.7942    1.5000    0.0000 C   0  0  0  0  0  0  0  0  0  0  0  0
    7.0442    2.7990    0.0000 F   0  0  0  0  0  0  0  0  0  0  0  0
    8.5442    0.2010    0.0000 F   0  0  0  0  0  0  0  0  0  0  0  0
    9.0933    2.2500    0.0000 C   0  0  0  0  0  0  0  0  0  0  0  0
    9.8433    0.9510    0.0000 F   0  0  0  0  0  0  0  0  0  0  0  0
    8.3433    3.5490    0.0000 F   0  0  0  0  0  0  0  0  0  0  0  0
   10.3923    3.0000    0.0000 C   0  0  0  0  0  0  0  0  0  0  0  0
    9.6423    4.2990    0.0000 F   0  0  0  0  0  0  0  0  0  0  0  0
   11.1423    1.7010    0.0000 F   0  0  0  0  0  0  0  0  0  0  0  0
   11.6913    3.7500    0.0000 C   0  0  0  0  0  0  0  0  0  0  0  0
   12.4413    2.4510    0.0000 F   0  0  0  0  0  0  0  0  0  0  0  0
   10.9413    5.0490    0.0000 F   0  0  0  0  0  0  0  0  0  0  0  0
   12.9904    4.5000    0.0000 C   0  0  0  0  0  0  0  0  0  0  0  0
   14.2894    5.2500    0.0000 F   0  0  0  0  0  0  0  0  0  0  0  0
   12.2404    5.7990    0.0000 F   0  0  0  0  0  0  0  0  0  0  0  0
   13.7404    3.2010    0.0000 F   0  0  0  0  0  0  0  0  0  0  0  0
  1  2  1  0
  2  3  1  0
  2  4  1  0
  2  5  1  0
  5  6  1  0
  5  7  1  0
  5  8  1  0
  8  9  1  0
  8 10  1  0
  8 11  1  0
 11 12  1  0
 11 13  1  0
 11 14  1  0
 14 15  1  0
 14 16  1  0
 14 17  1  0
 17 18  1  0
 17 19  1  0
 17 20  1  0
 20 21  1  0
 21 22  1  0
 22 23  1  0
 23 24  1  0
 24 25  1  0
 25 26  1  0
 25 27  1  0
 25 28  1  0
 28 29  1  0
 28 30  1  0
 28 31  1  0
 31 32  1  0
 31 33  1  0
 31 34  1  0
 34 35  1  0
 34 36  1  0
 34 37  1  0
 37 38  1  0
 37 39  1  0
 37 40  1  0
 40 41  1  0
 40 42  1  0
 40 43  1  0
M  END
$$$$

     RDKit          2D

 13 12  0  0  0  0  0  0  0  0999 V2000
    0.0000    0.0000    0.0000 C   0  0  0  0  0  0  0  0  0  0  0  0
    1.2990    0.7500    0.0000 C   0  0  0  0  0  0  0  0  0  0  0  0
    2.5981   -0.0000    0.0000 C   0  0  0  0  0  0  0  0  0  0  0  0
    3.8971    0.7500    0.0000 O   0  0  0  0  0  0  0  0  0  0  0  0
    5.1962   -0.0000    0.0000 C   0  0  0  0  0  0  0  0  0  0  0  0
    5.1962   -1.5000    0.0000 O   0  0  0  0  0  0  0  0  0  0  0  0
    6.4952    0.7500    0.0000 C   0  0  0  0  0  0  0  0  0  0  0  0
    7.2452   -0.5490    0.0000 F   0  0  0  0  0  0  0  0  0  0  0  0
    5.7452    2.0490    0.0000 F   0  0  0  0  0  0  0  0  0  0  0  0
    7.7942    1.5000    0.0000 C   0  0  0  0  0  0  0  0  0  0  0  0
    9.0933    2.2500    0.0000 F   0  0  0  0  0  0  0  0  0  0  0  0
    7.0442    2.7990    0.0000 F   0  0  0  0  0  0  0  0  0  0  0  0
    8.5442    0.2010    0.0000 Cl  0  0  0  0  0  0  0  0  0  0  0  0
  1  2  2  0
  2  3  1  0
  3  4  1  0
  4  5  1  0
  5  6  2  0
  5  7  1  0
  7  8  1  0
  7  9  1  0
  7 10  1  0
 10 11  1  0
 10 12  1  0
 10 13  1  0
M  END
$$$$

     RDKit          2D

 33 35  0  0  0  0  0  0  0  0999 V2000
    2.7990   -8.3350    0.0000 C   0  0  0  0  0  0  0  0  0  0  0  0
    1.2990   -8.3350    0.0000 C   0  0  0  0  0  0  0  0  0  0  0  0
   -0.2010   -8.3350    0.0000 C   0  0  0  0  0  0  0  0  0  0  0  0
    1.2990   -9.8350    0.0000 C   0  0  0  0  0  0  0  0  0  0  0  0
    2.5981  -10.5850    0.0000 O   0  0  0  0  0  0  0  0  0  0  0  0
   -0.0000  -10.5850    0.0000 N   0  0  0  0  0  0  0  0  0  0  0  0
   -0.0000  -12.0850    0.0000 C   0  0  0  0  0  0  0  0  0  0  0  0
   -1.2990  -12.8350    0.0000 C   0  0  0  0  0  0  0  0  0  0  0  0
   -0.5490  -14.1340    0.0000 F   0  0  0  0  0  0  0  0  0  0  0  0
   -2.0490  -11.5360    0.0000 F   0  0  0  0  0  0  0  0  0  0  0  0
   -2.5981  -13.5850    0.0000 C   0  0  0  0  0  0  0  0  0  0  0  0
   -3.8971  -14.3350    0.0000 F   0  0  0  0  0  0  0  0  0  0  0  0
   -3.3481  -12.2860    0.0000 F   0  0  0  0  0  0  0  0  0  0  0  0
   -1.8481  -14.8840    0.0000 F   0  0  0  0  0  0  0  0  0  0  0  0
    1.2990   -6.8350    0.0000 C   0  0  0  0  0  0  0  0  0  0  0  0
    2.5981   -6.0850    0.0000 O   0  0  0  0  0  0  0  0  0  0  0  0
   -0.0000   -6.0850    0.0000 N   0  0  0  0  0  0  0  0  0  0  0  0
   -0.0000   -4.5850    0.0000 C   0  0  0  0  0  0  0  0  0  0  0  0
    1.3515   -3.9342    0.0000 C   0  0  0  0  0  0  0  0  0  0  0  0
    2.5242   -4.8694    0.0000 O   0  0  0  0  0  0  0  0  0  0  0  0
    1.6852   -2.4718    0.0000 N   0  0  0  0  0  0  0  0  0  0  0  0
    0.7500   -1.2990    0.0000 C   0  0  0  0  0  0  0  0  0  0  0  0
    1.5000    0.0000    0.0000 C   0  0  0  0  0  0  0  0  0  0  0  0
    0.7500    1.2990    0.0000 C   0  0  0  0  0  0  0  0  0  0  0  0
   -0.7500    1.2990    0.0000 C   0  0  0  0  0  0  0  0  0  0  0  0
   -1.5000    0.0000    0.0000 C   0  0  0  0  0  0  0  0  0  0  0  0
   -0.7500   -1.2990    0.0000 C   0  0  0  0  0  0  0  0  0  0  0  0
   -1.6852   -2.4718    0.0000 C   0  0  0  0  0  0  0  0  0  0  0  0
   -3.1186   -2.0297    0.0000 C   0  0  0  0  0  0  0  0  0  0  0  0
   -4.2182   -3.0499    0.0000 C   0  0  0  0  0  0  0  0  0  0  0  0
   -3.8844   -4.5123    0.0000 C   0  0  0  0  0  0  0  0  0  0  0  0
   -2.4510   -4.9544    0.0000 C   0  0  0  0  0  0  0  0  0  0  0  0
   -1.3515   -3.9342    0.0000 C   0  0  0  0  0  0  0  0  0  0  0  0
  1  2  1  0
  2  3  1  0
  2  4  1  0
  4  5  2  0
  4  6  1  0
  6  7  1  0
  7  8  1  0
  8  9  1  0
  8 10  1  0
  8 11  1  0
 11 12  1  0
 11 13  1  0
 11 14  1  0
  2 15  1  0
 15 16  2  0
 15 17  1  0
 18 17  1  1
 18 19  1  0
 19 20  2  0
 19 21  1  0
 21 22  1  0
 22 23  2  0
 23 24  1  0
 24 25  2  0
 25 26  1  0
 26 27  2  0
 27 28  1  0
 28 29  2  0
 29 30  1  0
 30 31  2  0
 31 32  1  0
 32 33  2  0
 33 18  1  0
 27 22  1  0
 33 28  1  0
M  END
$$$$

     RDKit          2D

 29 28  0  0  0  0  0  0  0  0999 V2000
    3.0000   -1.5000    0.0000 O   0  0  0  0  0  0  0  0  0  0  0  0
    3.0000    0.0000    0.0000 S   0  0  0  0  0  0  0  0  0  0  0  0
    3.0000    1.5000    0.0000 O   0  0  0  0  0  0  0  0  0  0  0  0
    4.5000    0.0000    0.0000 O   0  0  0  0  0  0  0  0  0  0  0  0
    1.5000    0.0000    0.0000 C   0  0  0  0  0  0  0  0  0  0  0  0
    0.7500   -1.2990    0.0000 C   0  0  0  0  0  0  0  0  0  0  0  0
   -0.7500   -1.2990    0.0000 C   0  0  0  0  0  0  0  0  0  0  0  0
   -1.5000    0.0000    0.0000 C   0  0  0  0  0  0  0  0  0  0  0  0
   -3.0000    0.0000    0.0000 O   0  0  0  0  0  0  0  0  0  0  0  0
   -3.7500    1.2990    0.0000 C   0  0  0  0  0  0  0  0  0  0  0  0
   -5.2500    1.2990    0.0000 C   0  0  0  0  0  0  0  0  0  0  0  0
   -6.0000    2.5981    0.0000 C   0  0  0  0  0  0  0  0  0  0  0  0
   -6.7500    3.8971    0.0000 F   0  0  0  0  0  0  0  0  0  0  0  0
   -5.0297    3.3293    0.0000 F   0  0  0  0  0  0  0  0  0  0  0  0
   -7.2990    1.8481    0.0000 F   0  0  0  0  0  0  0  0  0  0  0  0
   -6.0000   -0.0000    0.0000 C   0  0  0  0  0  0  0  0  0  0  0  0
   -6.7500   -1.2990    0.0000 F   0  0  0  0  0  0  0  0  0  0  0  0
   -7.2990    0.7500    0.0000 F   0  0  0  0  0  0  0  0  0  0  0  0
   -4.7010   -0.7500    0.0000 F   0  0  0  0  0  0  0  0  0  0  0  0
   -3.0000    2.5981    0.0000 C   0  0  0  0  0  0  0  0  0  0  0  0
   -1.7010    1.8481    0.0000 F   0  0  0  0  0  0  0  0  0  0  0  0
   -3.9703    3.3293    0.0000 F   0  0  0  0  0  0  0  0  0  0  0  0
   -2.2500    3.8971    0.0000 C   0  0  0  0  0  0  0  0  0  0  0  0
   -1.5000    5.1962    0.0000 F   0  0  0  0  0  0  0  0  0  0  0  0
   -3.5490    4.6471    0.0000 F   0  0  0  0  0  0  0  0  0  0  0  0
   -0.9510    3.1471    0.0000 F   0  0  0  0  0  0  0  0  0  0  0  0
   -0.7500    1.2990    0.0000 C   0  0  0  0  0  0  0  0  0  0  0  0
    0.7500    1.2990    0.0000 C   0  0  0  0  0  0  0  0  0  0  0  0
    0.0000    6.1962    0.0000 Na  0  0  0  0  0 15  0  0  0  0  0  0
  1  2  2  0
  2  3  2  0
  2  4  1  0
  2  5  1  0
  5  6  2  0
  6  7  1  0
  7  8  2  0
  8  9  1  0
  9 10  1  0
 10 11  2  0
 11 12  1  0
 12 13  1  0
 12 14  1  0
 12 15  1  0
 11 16  1  0
 16 17  1  0
 16 18  1  0
 16 19  1  0
 10 20  1  0
 20 21  1  0
 20 22  1  0
 20 23  1  0
 23 24  1  0
 23 25  1  0
 23 26  1  0
  8 27  1  0
 27 28  2  0
 28  5  1  0
M  CHG  2   4  -1  29   1
M  END
$$$$

     RDKit          2D

 29 28  0  0  0  0  0  0  0  0999 V2000
   -0.0000    7.5000    0.0000 C   0  0  0  0  0  0  0  0  0  0  0  0
    1.2990    6.7500    0.0000 C   0  0  0  0  0  0  0  0  0  0  0  0
    2.5981    7.5000    0.0000 C   0  0  0  0  0  0  0  0  0  0  0  0
    3.8971    6.7500    0.0000 N   0  0  0  0  0  0  0  0  0  0  0  0
    5.1962    7.5000    0.0000 C   0  0  0  0  0  0  0  0  0  0  0  0
    6.4952    6.7500    0.0000 C   0  0  0  0  0  0  0  0  0  0  0  0
    7.7942    7.5000    0.0000 O   0  0  0  0  0  0  0  0  0  0  0  0
    3.8971    5.2500    0.0000 S   0  0  0  0  0  0  0  0  0  0  0  0
    3.1059    5.3472    0.0000 O   0  0  0  0  0  0  0  0  0  0  0  0
    5.3971    5.2500    0.0000 O   0  0  0  0  0  0  0  0  0  0  0  0
    3.8971    3.7500    0.0000 C   0  0  0  0  0  0  0  0  0  0  0  0
    5.3971    3.7500    0.0000 F   0  0  0  0  0  0  0  0  0  0  0  0
    3.8971    2.2500    0.0000 F   0  0  0  0  0  0  0  0  0  0  0  0
    2.3971    3.7500    0.0000 C   0  0  0  0  0  0  0  0  0  0  0  0
    2.3971    2.2500    0.0000 F   0  0  0  0  0  0  0  0  0  0  0  0
    2.2891    4.6291    0.0000 F   0  0  0  0  0  0  0  0  0  0  0  0
    0.8971    3.7500    0.0000 C   0  0  0  0  0  0  0  0  0  0  0  0
    0.8971    2.2500    0.0000 F   0  0  0  0  0  0  0  0  0  0  0  0
    0.8971    5.2500    0.0000 F   0  0  0  0  0  0  0  0  0  0  0  0
   -0.6029    3.7500    0.0000 C   0  0  0  0  0  0  0  0  0  0  0  0
   -0.6029    5.2500    0.0000 F   0  0  0  0  0  0  0  0  0  0  0  0
   -0.6029    2.2500    0.0000 F   0  0  0  0  0  0  0  0  0  0  0  0
   -2.1029    3.7500    0.0000 C   0  0  0  0  0  0  0  0  0  0  0  0
   -2.1029    2.2500    0.0000 F   0  0  0  0  0  0  0  0  0  0  0  0
   -2.1029    5.2500    0.0000 F   0  0  0  0  0  0  0  0  0  0  0  0
   -3.6029    3.7500    0.0000 C   0  0  0  0  0  0  0  0  0  0  0  0
   -5.1029    3.7500    0.0000 F   0  0  0  0  0  0  0  0  0  0  0  0
   -3.6029    5.2500    0.0000 F   0  0  0  0  0  0  0  0  0  0  0  0
   -3.6029    2.2500    0.0000 F   0  0  0  0  0  0  0  0  0  0  0  0
  1  2  1  0
  2  3  1  0
  3  4  1  0
  4  5  1  0
  5  6  1  0
  6  7  1  0
  4  8  1  0
  8  9  2  0
  8 10  2  0
  8 11  1  0
 11 12  1  0
 11 13  1  0
 11 14  1  0
 14 15  1  0
 14 16  1  0
 14 17  1  0
 17 18  1  0
 17 19  1  0
 17 20  1  0
 20 21  1  0
 20 22  1  0
 20 23  1  0
 23 24  1  0
 23 25  1  0
 23 26  1  0
 26 27  1  0
 26 28  1  0
 26 29  1  0
M  END
$$$$

     RDKit          2D

 23 22  0  0  0  0  0  0  0  0999 V2000
   -0.5256    2.0571    0.0000 O   0  0  0  0  0  0  0  0  0  0  0  0
   -1.2990    2.2500    0.0000 S   0  0  0  0  0  0  0  0  0  0  0  0
   -2.7990    2.2500    0.0000 O   0  0  0  0  0  0  0  0  0  0  0  0
   -1.2990    0.7500    0.0000 N   0  0  0  0  0  0  0  0  0  0  0  0
    0.0000   -0.0000    0.0000 C   0  0  0  0  0  0  0  0  0  0  0  0
    1.2990    0.7500    0.0000 C   0  0  0  0  0  0  0  0  0  0  0  0
    2.5981   -0.0000    0.0000 O   0  0  0  0  0  0  0  0  0  0  0  0
   -2.5981   -0.0000    0.0000 C   0  0  0  0  0  0  0  0  0  0  0  0
   -3.8971    0.7500    0.0000 C   0  0  0  0  0  0  0  0  0  0  0  0
   -5.1962   -0.0000    0.0000 O   0  0  0  0  0  0  0  0  0  0  0  0
   -1.2990    3.7500    0.0000 C   0  0  0  0  0  0  0  0  0  0  0  0
   -2.7990    3.7500    0.0000 F   0  0  0  0  0  0  0  0  0  0  0  0
   -1.4819    5.2388    0.0000 F   0  0  0  0  0  0  0  0  0  0  0  0
    0.2010    3.7500    0.0000 C   0  0  0  0  0  0  0  0  0  0  0  0
    1.7010    3.7500    0.0000 F   0  0  0  0  0  0  0  0  0  0  0  0
    0.2010    2.2500    0.0000 C   0  0  0  0  0  0  0  0  0  0  0  0
    0.5639    0.7946    0.0000 F   0  0  0  0  0  0  0  0  0  0  0  0
    1.7010    2.2500    0.0000 F   0  0  0  0  0  0  0  0  0  0  0  0
   -1.2545    1.8870    0.0000 F   0  0  0  0  0  0  0  0  0  0  0  0
    0.2010    5.2500    0.0000 C   0  0  0  0  0  0  0  0  0  0  0  0
    0.2010    6.7500    0.0000 F   0  0  0  0  0  0  0  0  0  0  0  0
    1.7010    5.2500    0.0000 F   0  0  0  0  0  0  0  0  0  0  0  0
   -1.2879    5.4328    0.0000 F   0  0  0  0  0  0  0  0  0  0  0  0
  1  2  2  0
  2  3  2  0
  2  4  1  0
  4  5  1  0
  5  6  1  0
  6  7  1  0
  4  8  1  0
  8  9  1  0
  9 10  1  0
  2 11  1  0
 11 12  1  0
 11 13  1  0
 11 14  1  0
 14 15  1  0
 14 16  1  0
 16 17  1  0
 16 18  1  0
 16 19  1  0
 14 20  1  0
 20 21  1  0
 20 22  1  0
 20 23  1  0
M  END
$$$$

     RDKit          2D

 66 64  0  0  0  0  0  0  0  0999 V2000
   -1.8481   -1.2990    0.0000 O   0  0  0  0  0  0  0  0  0  0  0  0
   -2.5981    0.0000    0.0000 P   0  0  0  0  0  0  0  0  0  0  0  0
   -3.3481    1.2990    0.0000 O   0  0  0  0  0  0  0  0  0  0  0  0
   -1.2990    0.7500    0.0000 O   0  0  0  0  0  0  0  0  0  0  0  0
    0.0000    0.0000    0.0000 C   0  0  0  0  0  0  0  0  0  0  0  0
    1.2990    0.7500    0.0000 C   0  0  0  0  0  0  0  0  0  0  0  0
    2.5981   -0.0000    0.0000 C   0  0  0  0  0  0  0  0  0  0  0  0
    3.3481    1.2990    0.0000 F   0  0  0  0  0  0  0  0  0  0  0  0
    1.8481   -1.2990    0.0000 F   0  0  0  0  0  0  0  0  0  0  0  0
    3.8971   -0.7500    0.0000 C   0  0  0  0  0  0  0  0  0  0  0  0
    3.1471   -2.0490    0.0000 F   0  0  0  0  0  0  0  0  0  0  0  0
    4.6471    0.5490    0.0000 F   0  0  0  0  0  0  0  0  0  0  0  0
    5.1962   -1.5000    0.0000 C   0  0  0  0  0  0  0  0  0  0  0  0
    5.9462   -0.2010    0.0000 F   0  0  0  0  0  0  0  0  0  0  0  0
    4.4462   -2.7990    0.0000 F   0  0  0  0  0  0  0  0  0  0  0  0
    6.4952   -2.2500    0.0000 C   0  0  0  0  0  0  0  0  0  0  0  0
    7.2452   -0.9510    0.0000 F   0  0  0  0  0  0  0  0  0  0  0  0
    5.7452   -3.5490    0.0000 F   0  0  0  0  0  0  0  0  0  0  0  0
    7.7942   -3.0000    0.0000 C   0  0  0  0  0  0  0  0  0  0  0  0
    7.0442   -4.2990    0.0000 F   0  0  0  0  0  0  0  0  0  0  0  0
    8.5442   -1.7010    0.0000 F   0  0  0  0  0  0  0  0  0  0  0  0
    9.0933   -3.7500    0.0000 C   0  0  0  0  0  0  0  0  0  0  0  0
    9.4393   -2.9347    0.0000 F   0  0  0  0  0  0  0  0  0  0  0  0
    8.3433   -5.0490    0.0000 F   0  0  0  0  0  0  0  0  0  0  0  0
   10.3923   -4.5000    0.0000 C   0  0  0  0  0  0  0  0  0  0  0  0
    9.6423   -5.7990    0.0000 F   0  0  0  0  0  0  0  0  0  0  0  0
   11.6913   -5.2500    0.0000 C   0  0  0  0  0  0  0  0  0  0  0  0
   12.9904   -6.0000    0.0000 F   0  0  0  0  0  0  0  0  0  0  0  0
   10.9413   -6.5490    0.0000 F   0  0  0  0  0  0  0  0  0  0  0  0
   12.2244   -4.5426    0.0000 F   0  0  0  0  0  0  0  0  0  0  0  0
   11.1423   -3.2010    0.0000 C   0  0  0  0  0  0  0  0  0  0  0  0
   11.8923   -1.9019    0.0000 F   0  0  0  0  0  0  0  0  0  0  0  0
   11.9576   -3.5470    0.0000 F   0  0  0  0  0  0  0  0  0  0  0  0
   10.4349   -2.6679    0.0000 F   0  0  0  0  0  0  0  0  0  0  0  0
   -3.8971   -0.7500    0.0000 O   0  0  0  0  0  0  0  0  0  0  0  0
   -3.8971   -2.2500    0.0000 C   0  0  0  0  0  0  0  0  0  0  0  0
   -5.1962   -3.0000    0.0000 C   0  0  0  0  0  0  0  0  0  0  0  0
   -5.1962   -4.5000    0.0000 C   0  0  0  0  0  0  0  0  0  0  0  0
   -6.6962   -4.5000    0.0000 F   0  0  0  0  0  0  0  0  0  0  0  0
   -3.6962   -4.5000    0.0000 F   0  0  0  0  0  0  0  0  0  0  0  0
   -5.1962   -6.0000    0.0000 C   0  0  0  0  0  0  0  0  0  0  0  0
   -3.6962   -6.0000    0.0000 F   0  0  0  0  0  0  0  0  0  0  0  0
   -6.6962   -6.0000    0.0000 F   0  0  0  0  0  0  0  0  0  0  0  0
   -5.1962   -7.5000    0.0000 C   0  0  0  0  0  0  0  0  0  0  0  0
   -6.6962   -7.5000    0.0000 F   0  0  0  0  0  0  0  0  0  0  0  0
   -3.6962   -7.5000    0.0000 F   0  0  0  0  0  0  0  0  0  0  0  0
   -5.1962   -9.0000    0.0000 C   0  0  0  0  0  0  0  0  0  0  0  0
   -6.6962   -9.0000    0.0000 F   0  0  0  0  0  0  0  0  0  0  0  0
   -3.6962   -9.0000    0.0000 F   0  0  0  0  0  0  0  0  0  0  0  0
   -5.1962  -10.5000    0.0000 C   0  0  0  0  0  0  0  0  0  0  0  0
   -3.6962  -10.5000    0.0000 F   0  0  0  0  0  0  0  0  0  0  0  0
   -6.6962  -10.5000    0.0000 F   0  0  0  0  0  0  0  0  0  0  0  0
   -5.1962  -12.0000    0.0000 C   0  0  0  0  0  0  0  0  0  0  0  0
   -6.6850  -11.8172    0.0000 F   0  0  0  0  0  0  0  0  0  0  0  0
   -3.6962  -12.0000    0.0000 F   0  0  0  0  0  0  0  0  0  0  0  0
   -5.1962  -13.5000    0.0000 C   0  0  0  0  0  0  0  0  0  0  0  0
   -3.6962  -13.5000    0.0000 F   0  0  0  0  0  0  0  0  0  0  0  0
   -5.1962  -15.0000    0.0000 C   0  0  0  0  0  0  0  0  0  0  0  0
   -5.1962  -16.5000    0.0000 F   0  0  0  0  0  0  0  0  0  0  0  0
   -3.6962  -15.0000    0.0000 F   0  0  0  0  0  0  0  0  0  0  0  0
   -6.0753  -15.1080    0.0000 F   0  0  0  0  0  0  0  0  0  0  0  0
   -6.6962  -13.5000    0.0000 C   0  0  0  0  0  0  0  0  0  0  0  0
   -8.1962  -13.5000    0.0000 F   0  0  0  0  0  0  0  0  0  0  0  0
   -6.8041  -14.3791    0.0000 F   0  0  0  0  0  0  0  0  0  0  0  0
   -6.8790  -12.0112    0.0000 F   0  0  0  0  0  0  0  0  0  0  0  0
    0.0000    2.2990    0.0000 N   0  0  0  0  0  0  0  0  0  0  0  0
  1  2  2  0
  2  3  1  0
  2  4  1  0
  4  5  1  0
  5  6  1  0
  6  7  1  0
  7  8  1  0
  7  9  1  0
  7 10  1  0
 10 11  1  0
 10 12  1  0
 10 13  1  0
 13 14  1  0
 13 15  1  0
 13 16  1  0
 16 17  1  0
 16 18  1  0
 16 19  1  0
 19 20  1  0
 19 21  1  0
 19 22  1  0
 22 23  1  0
 22 24  1  0
 22 25  1  0
 25 26  1  0
 25 27  1  0
 27 28  1  0
 27 29  1  0
 27 30  1  0
 25 31  1  0
 31 32  1  0
 31 33  1  0
 31 34  1  0
  2 35  1  0
 35 36  1  0
 36 37  1  0
 37 38  1  0
 38 39  1  0
 38 40  1  0
 38 41  1  0
 41 42  1  0
 41 43  1  0
 41 44  1  0
 44 45  1  0
 44 46  1  0
 44 47  1  0
 47 48  1  0
 47 49  1  0
 47 50  1  0
 50 51  1  0
 50 52  1  0
 50 53  1  0
 53 54  1  0
 53 55  1  0
 53 56  1  0
 56 57  1  0
 56 58  1  0
 58 59  1  0
 58 60  1  0
 58 61  1  0
 56 62  1  0
 62 63  1  0
 62 64  1  0
 62 65  1  0
M  CHG  2   3  -1  66   1
M  END
$$$$

     RDKit          2D

 54 53  0  0  0  0  0  0  0  0999 V2000
    0.0000    0.0000    0.0000 C   0  0  0  0  0  0  0  0  0  0  0  0
    1.2990    0.7500    0.0000 C   0  0  0  0  0  0  0  0  0  0  0  0
    2.5981   -0.0000    0.0000 C   0  0  0  0  0  0  0  0  0  0  0  0
    1.2990    2.2500    0.0000 C   0  0  0  0  0  0  0  0  0  0  0  0
    0.0000    3.0000    0.0000 O   0  0  0  0  0  0  0  0  0  0  0  0
    2.5981    3.0000    0.0000 O   0  0  0  0  0  0  0  0  0  0  0  0
    2.5981    4.5000    0.0000 C   0  0  0  0  0  0  0  0  0  0  0  0
    3.8971    5.2500    0.0000 C   0  0  0  0  0  0  0  0  0  0  0  0
    3.8971    6.7500    0.0000 C   0  0  0  0  0  0  0  0  0  0  0  0
    5.3971    6.7500    0.0000 F   0  0  0  0  0  0  0  0  0  0  0  0
    2.3971    6.7500    0.0000 F   0  0  0  0  0  0  0  0  0  0  0  0
    3.8971    8.2500    0.0000 C   0  0  0  0  0  0  0  0  0  0  0  0
    2.3971    8.2500    0.0000 F   0  0  0  0  0  0  0  0  0  0  0  0
    5.3971    8.2500    0.0000 F   0  0  0  0  0  0  0  0  0  0  0  0
    3.8971    9.7500    0.0000 C   0  0  0  0  0  0  0  0  0  0  0  0
    5.3971    9.7500    0.0000 F   0  0  0  0  0  0  0  0  0  0  0  0
    2.3971    9.7500    0.0000 F   0  0  0  0  0  0  0  0  0  0  0  0
    3.8971   11.2500    0.0000 C   0  0  0  0  0  0  0  0  0  0  0  0
    2.3971   11.2500    0.0000 F   0  0  0  0  0  0  0  0  0  0  0  0
    5.3971   11.2500    0.0000 F   0  0  0  0  0  0  0  0  0  0  0  0
    3.8971   12.7500    0.0000 C   0  0  0  0  0  0  0  0  0  0  0  0
    5.3971   12.7500    0.0000 F   0  0  0  0  0  0  0  0  0  0  0  0
    2.3971   12.7500    0.0000 F   0  0  0  0  0  0  0  0  0  0  0  0
    3.8971   14.2500    0.0000 C   0  0  0  0  0  0  0  0  0  0  0  0
    2.3971   14.2500    0.0000 F   0  0  0  0  0  0  0  0  0  0  0  0
    5.3971   14.2500    0.0000 F   0  0  0  0  0  0  0  0  0  0  0  0
    3.8971   15.7500    0.0000 C   0  0  0  0  0  0  0  0  0  0  0  0
    2.3971   15.7500    0.0000 F   0  0  0  0  0  0  0  0  0  0  0  0
    5.3971   15.7500    0.0000 F   0  0  0  0  0  0  0  0  0  0  0  0
    3.8971   17.2500    0.0000 C   0  0  0  0  0  0  0  0  0  0  0  0
    5.3971   17.2500    0.0000 F   0  0  0  0  0  0  0  0  0  0  0  0
    2.3971   17.2500    0.0000 F   0  0  0  0  0  0  0  0  0  0  0  0
    3.8971   18.7500    0.0000 C   0  0  0  0  0  0  0  0  0  0  0  0
    2.3971   18.7500    0.0000 F   0  0  0  0  0  0  0  0  0  0  0  0
    5.3971   18.7500    0.0000 F   0  0  0  0  0  0  0  0  0  0  0  0
    3.8971   20.2500    0.0000 C   0  0  0  0  0  0  0  0  0  0  0  0
    5.3971   20.2500    0.0000 F   0  0  0  0  0  0  0  0  0  0  0  0
    2.3971   20.2500    0.0000 F   0  0  0  0  0  0  0  0  0  0  0  0
    3.8971   21.7500    0.0000 C   0  0  0  0  0  0  0  0  0  0  0  0
    2.3971   21.7500    0.0000 F   0  0  0  0  0  0  0  0  0  0  0  0
    5.3971   21.7500    0.0000 F   0  0  0  0  0  0  0  0  0  0  0  0
    3.8971   23.2500    0.0000 C   0  0  0  0  0  0  0  0  0  0  0  0
    4.7762   23.1420    0.0000 F   0  0  0  0  0  0  0  0  0  0  0  0
    2.3971   23.2500    0.0000 F   0  0  0  0  0  0  0  0  0  0  0  0
    3.8971   24.7500    0.0000 C   0  0  0  0  0  0  0  0  0  0  0  0
    2.3971   24.7500    0.0000 F   0  0  0  0  0  0  0  0  0  0  0  0
    3.8971   26.2500    0.0000 C   0  0  0  0  0  0  0  0  0  0  0  0
    3.8971   27.7500    0.0000 F   0  0  0  0  0  0  0  0  0  0  0  0
    2.3971   26.2500    0.0000 F   0  0  0  0  0  0  0  0  0  0  0  0
    4.7762   26.3580    0.0000 F   0  0  0  0  0  0  0  0  0  0  0  0
    5.3971   24.7500    0.0000 C   0  0  0  0  0  0  0  0  0  0  0  0
    6.8971   24.7500    0.0000 F   0  0  0  0  0  0  0  0  0  0  0  0
    5.5051   25.6291    0.0000 F   0  0  0  0  0  0  0  0  0  0  0  0
    5.5051   23.8709    0.0000 F   0  0  0  0  0  0  0  0  0  0  0  0
  1  2  2  0
  2  3  1  0
  2  4  1  0
  4  5  2  0
  4  6  1  0
  6  7  1  0
  7  8  1  0
  8  9  1  0
  9 10  1  0
  9 11  1  0
  9 12  1  0
 12 13  1  0
 12 14  1  0
 12 15  1  0
 15 16  1  0
 15 17  1  0
 15 18  1  0
 18 19  1  0
 18 20  1  0
 18 21  1  0
 21 22  1  0
 21 23  1  0
 21 24  1  0
 24 25  1  0
 24 26  1  0
 24 27  1  0
 27 28  1  0
 27 29  1  0
 27 30  1  0
 30 31  1  0
 30 32  1  0
 30 33  1  0
 33 34  1  0
 33 35  1  0
 33 36  1  0
 36 37  1  0
 36 38  1  0
 36 39  1  0
 39 40  1  0
 39 41  1  0
 39 42  1  0
 42 43  1  0
 42 44  1  0
 42 45  1  0
 45 46  1  0
 45 47  1  0
 47 48  1  0
 47 49  1  0
 47 50  1  0
 45 51  1  0
 51 52  1  0
 51 53  1  0
 51 54  1  0
M  END
$$$$

     RDKit          2D

 29 28  0  0  0  0  0  0  0  0999 V2000
    0.0000    0.0000    0.0000 C   0  0  0  0  0  0  0  0  0  0  0  0
    1.2990    0.7500    0.0000 Si  0  0  0  0  0  4  0  0  0  0  0  0
    2.5981    1.5000    0.0000 C   0  0  0  0  0  0  0  0  0  0  0  0
    2.0490   -0.5490    0.0000 C   0  0  0  0  0  0  0  0  0  0  0  0
    0.5490    2.0490    0.0000 O   0  0  0  0  0  0  0  0  0  0  0  0
    1.2990    3.3481    0.0000 Si  0  0  0  0  0  4  0  0  0  0  0  0
    2.5981    2.5981    0.0000 Cl  0  0  0  0  0  0  0  0  0  0  0  0
    0.0000    4.0981    0.0000 Cl  0  0  0  0  0  0  0  0  0  0  0  0
    2.0490    4.6471    0.0000 C   0  0  0  0  0  0  0  0  0  0  0  0
    3.5490    4.6471    0.0000 C   0  0  0  0  0  0  0  0  0  0  0  0
    4.2990    5.9462    0.0000 C   0  0  0  0  0  0  0  0  0  0  0  0
    5.5981    5.1962    0.0000 F   0  0  0  0  0  0  0  0  0  0  0  0
    3.0000    6.6962    0.0000 F   0  0  0  0  0  0  0  0  0  0  0  0
    5.0490    7.2452    0.0000 C   0  0  0  0  0  0  0  0  0  0  0  0
    3.7500    7.9952    0.0000 F   0  0  0  0  0  0  0  0  0  0  0  0
    6.3481    6.4952    0.0000 F   0  0  0  0  0  0  0  0  0  0  0  0
    5.7990    8.5442    0.0000 C   0  0  0  0  0  0  0  0  0  0  0  0
    7.0981    7.7942    0.0000 F   0  0  0  0  0  0  0  0  0  0  0  0
    4.5000    9.2942    0.0000 F   0  0  0  0  0  0  0  0  0  0  0  0
    6.5490    9.8433    0.0000 C   0  0  0  0  0  0  0  0  0  0  0  0
    5.2500   10.5933    0.0000 F   0  0  0  0  0  0  0  0  0  0  0  0
    7.8481    9.0933    0.0000 F   0  0  0  0  0  0  0  0  0  0  0  0
    7.2990   11.1423    0.0000 C   0  0  0  0  0  0  0  0  0  0  0  0
    8.5981   10.3923    0.0000 F   0  0  0  0  0  0  0  0  0  0  0  0
    6.0000   11.8923    0.0000 F   0  0  0  0  0  0  0  0  0  0  0  0
    8.0490   12.4413    0.0000 C   0  0  0  0  0  0  0  0  0  0  0  0
    8.7990   13.7404    0.0000 F   0  0  0  0  0  0  0  0  0  0  0  0
    6.7500   13.1913    0.0000 F   0  0  0  0  0  0  0  0  0  0  0  0
    9.3481   11.6913    0.0000 F   0  0  0  0  0  0  0  0  0  0  0  0
  1  2  1  0
  2  3  1  0
  2  4  1  0
  2  5  1  0
  5  6  1  0
  6  7  1  0
  6  8  1  0
  6  9  1  0
  9 10  1  0
 10 11  1  0
 11 12  1  0
 11 13  1  0
 11 14  1  0
 14 15  1  0
 14 16  1  0
 14 17  1  0
 17 18  1  0
 17 19  1  0
 17 20  1  0
 20 21  1  0
 20 22  1  0
 20 23  1  0
 23 24  1  0
 23 25  1  0
 23 26  1  0
 26 27  1  0
 26 28  1  0
 26 29  1  0
M  END
$$$$

     RDKit          2D

 23 23  0  0  0  0  0  0  0  0999 V2000
    5.3660   -2.5981    0.0000 C   0  0  0  0  0  0  0  0  0  0  0  0
    4.6160   -1.2990    0.0000 C   0  0  0  0  0  0  0  0  0  0  0  0
    3.1160   -1.2990    0.0000 O   0  0  0  0  0  0  0  0  0  0  0  0
    2.3660    0.0000    0.0000 C   0  0  0  0  0  0  0  0  0  0  0  0
    3.1160    1.2990    0.0000 O   0  0  0  0  0  0  0  0  0  0  0  0
    0.8660    0.0000    0.0000 C   0  0  0  0  0  0  0  0  0  0  0  0
   -0.4330    0.7500    0.0000 C   0  0  0  0  0  0  0  0  0  0  0  0
   -1.1830    2.0490    0.0000 C   0  0  0  0  0  0  0  0  0  0  0  0
   -0.4330    3.3481    0.0000 O   0  0  0  0  0  0  0  0  0  0  0  0
   -1.1830    4.6471    0.0000 C   0  0  0  0  0  0  0  0  0  0  0  0
   -0.4330    5.9462    0.0000 C   0  0  0  0  0  0  0  0  0  0  0  0
   -2.6830    2.0490    0.0000 O   0  0  0  0  0  0  0  0  0  0  0  0
   -3.4330    3.3481    0.0000 C   0  0  0  0  0  0  0  0  0  0  0  0
   -4.9330    3.3481    0.0000 C   0  0  0  0  0  0  0  0  0  0  0  0
   -0.4330   -0.7500    0.0000 C   0  0  0  0  0  0  0  0  0  0  0  0
    0.0800   -2.1595    0.0000 C   0  0  0  0  0  0  0  0  0  0  0  0
    0.5930   -3.5691    0.0000 F   0  0  0  0  0  0  0  0  0  0  0  0
   -1.0025   -2.7112    0.0000 F   0  0  0  0  0  0  0  0  0  0  0  0
    1.4896   -1.6465    0.0000 F   0  0  0  0  0  0  0  0  0  0  0  0
   -1.9102   -1.0105    0.0000 C   0  0  0  0  0  0  0  0  0  0  0  0
   -3.3874   -1.2709    0.0000 F   0  0  0  0  0  0  0  0  0  0  0  0
   -2.1707    0.4667    0.0000 F   0  0  0  0  0  0  0  0  0  0  0  0
   -1.8467   -2.2238    0.0000 F   0  0  0  0  0  0  0  0  0  0  0  0
  1  2  1  0
  2  3  1  0
  3  4  1  0
  4  5  2  0
  6  4  1  1
  6  7  1  0
  7  8  1  6
  8  9  1  0
  9 10  1  0
 10 11  1  0
  8 12  1  0
 12 13  1  0
 13 14  1  0
  7 15  1  0
 15 16  1  0
 16 17  1  0
 16 18  1  0
 16 19  1  0
 15 20  1  0
 20 21  1  0
 20 22  1  0
 20 23  1  0
 15  6  1  0
M  END
$$$$

     RDKit          2D

  9  8  0  0  0  0  0  0  0  0999 V2000
   -1.2990    0.7500    0.0000 F   0  0  0  0  0  0  0  0  0  0  0  0
    0.0000    0.0000    0.0000 C   0  0  0  0  0  0  0  0  0  0  0  0
   -0.0000   -1.5000    0.0000 F   0  0  0  0  0  0  0  0  0  0  0  0
    1.2990    0.7500    0.0000 C   0  0  0  0  0  0  0  0  0  0  0  0
    1.2990    2.2500    0.0000 F   0  0  0  0  0  0  0  0  0  0  0  0
    2.5981   -0.0000    0.0000 C   0  0  0  0  0  0  0  0  0  0  0  0
    3.8971   -0.7500    0.0000 F   0  0  0  0  0  0  0  0  0  0  0  0
    3.3481    1.2990    0.0000 F   0  0  0  0  0  0  0  0  0  0  0  0
    1.8481   -1.2990    0.0000 F   0  0  0  0  0  0  0  0  0  0  0  0
  1  2  1  0
  2  3  1  0
  2  4  2  0
  4  5  1  0
  4  6  1  0
  6  7  1  0
  6  8  1  0
  6  9  1  0
M  END
$$$$

     RDKit          2D

 11 10  0  0  0  0  0  0  0  0999 V2000
   -1.5000    0.0000    0.0000 N   0  0  0  0  0  0  0  0  0  0  0  0
    0.0000    0.0000    0.0000 C   0  0  0  0  0  0  0  0  0  0  0  0
    0.0000    1.5000    0.0000 F   0  0  0  0  0  0  0  0  0  0  0  0
   -0.0000   -1.5000    0.0000 F   0  0  0  0  0  0  0  0  0  0  0  0
    1.5000    0.0000    0.0000 C   0  0  0  0  0  0  0  0  0  0  0  0
    1.5000   -1.5000    0.0000 F   0  0  0  0  0  0  0  0  0  0  0  0
    1.5000    1.5000    0.0000 F   0  0  0  0  0  0  0  0  0  0  0  0
    3.0000    0.0000    0.0000 C   0  0  0  0  0  0  0  0  0  0  0  0
    4.5000    0.0000    0.0000 F   0  0  0  0  0  0  0  0  0  0  0  0
    3.0000    1.5000    0.0000 F   0  0  0  0  0  0  0  0  0  0  0  0
    3.0000   -1.5000    0.0000 F   0  0  0  0  0  0  0  0  0  0  0  0
  1  2  1  0
  2  3  1  0
  2  4  1  0
  2  5  1  0
  5  6  1  0
  5  7  1  0
  5  8  1  0
  8  9  1  0
  8 10  1  0
  8 11  1  0
M  END
$$$$

     RDKit          2D

 51 50  0  0  0  0  0  0  0  0999 V2000
    0.0000    0.0000    0.0000 C   0  0  0  0  0  0  0  0  0  0  0  0
    1.2990    0.7500    0.0000 C   0  0  0  0  0  0  0  0  0  0  0  0
    2.5981    1.5000    0.0000 C   0  0  0  0  0  0  0  0  0  0  0  0
    2.0490   -0.5490    0.0000 C   0  0  0  0  0  0  0  0  0  0  0  0
    0.5490    2.0490    0.0000 O   0  0  0  0  0  0  0  0  0  0  0  0
    1.2990    3.3481    0.0000 Si  0  0  0  0  0  4  0  0  0  0  0  0
    2.5981    2.5981    0.0000 O   0  0  0  0  0  0  0  0  0  0  0  0
    3.8971    3.3481    0.0000 C   0  0  0  0  0  0  0  0  0  0  0  0
    5.1962    2.5981    0.0000 C   0  0  0  0  0  0  0  0  0  0  0  0
    5.9462    3.8971    0.0000 F   0  0  0  0  0  0  0  0  0  0  0  0
    4.4462    1.2990    0.0000 F   0  0  0  0  0  0  0  0  0  0  0  0
    6.4952    1.8481    0.0000 C   0  0  0  0  0  0  0  0  0  0  0  0
    5.7452    0.5490    0.0000 F   0  0  0  0  0  0  0  0  0  0  0  0
    7.2452    3.1471    0.0000 F   0  0  0  0  0  0  0  0  0  0  0  0
    7.7942    1.0981    0.0000 C   0  0  0  0  0  0  0  0  0  0  0  0
    8.5442    2.3971    0.0000 F   0  0  0  0  0  0  0  0  0  0  0  0
    7.0442   -0.2010    0.0000 F   0  0  0  0  0  0  0  0  0  0  0  0
    9.0933    0.3481    0.0000 C   0  0  0  0  0  0  0  0  0  0  0  0
    9.8433    1.6471    0.0000 F   0  0  0  0  0  0  0  0  0  0  0  0
    8.3433   -0.9510    0.0000 F   0  0  0  0  0  0  0  0  0  0  0  0
   10.3923   -0.4019    0.0000 C   0  0  0  0  0  0  0  0  0  0  0  0
    9.6423   -1.7010    0.0000 F   0  0  0  0  0  0  0  0  0  0  0  0
   11.1423    0.8971    0.0000 F   0  0  0  0  0  0  0  0  0  0  0  0
   11.6913   -1.1519    0.0000 C   0  0  0  0  0  0  0  0  0  0  0  0
   11.6913   -2.6519    0.0000 F   0  0  0  0  0  0  0  0  0  0  0  0
   12.9904   -0.4019    0.0000 F   0  0  0  0  0  0  0  0  0  0  0  0
    0.0000    4.0981    0.0000 O   0  0  0  0  0  0  0  0  0  0  0  0
   -1.2990    3.3481    0.0000 C   0  0  0  0  0  0  0  0  0  0  0  0
   -2.5981    4.0981    0.0000 C   0  0  0  0  0  0  0  0  0  0  0  0
   -3.3481    2.7990    0.0000 F   0  0  0  0  0  0  0  0  0  0  0  0
   -1.8481    5.3971    0.0000 F   0  0  0  0  0  0  0  0  0  0  0  0
   -3.8971    4.8481    0.0000 C   0  0  0  0  0  0  0  0  0  0  0  0
   -3.1471    6.1471    0.0000 F   0  0  0  0  0  0  0  0  0  0  0  0
   -4.6471    3.5490    0.0000 F   0  0  0  0  0  0  0  0  0  0  0  0
   -5.1962    5.5981    0.0000 C   0  0  0  0  0  0  0  0  0  0  0  0
   -5.9462    4.2990    0.0000 F   0  0  0  0  0  0  0  0  0  0  0  0
   -4.4462    6.8971    0.0000 F   0  0  0  0  0  0  0  0  0  0  0  0
   -6.4952    6.3481    0.0000 C   0  0  0  0  0  0  0  0  0  0  0  0
   -7.2452    5.0490    0.0000 F   0  0  0  0  0  0  0  0  0  0  0  0
   -5.7452    7.6471    0.0000 F   0  0  0  0  0  0  0  0  0  0  0  0
   -7.7942    7.0981    0.0000 C   0  0  0  0  0  0  0  0  0  0  0  0
   -7.0442    8.3971    0.0000 F   0  0  0  0  0  0  0  0  0  0  0  0
   -8.5442    5.7990    0.0000 F   0  0  0  0  0  0  0  0  0  0  0  0
   -9.0933    7.8481    0.0000 C   0  0  0  0  0  0  0  0  0  0  0  0
   -9.0933    9.3481    0.0000 F   0  0  0  0  0  0  0  0  0  0  0  0
  -10.3923    7.0981    0.0000 F   0  0  0  0  0  0  0  0  0  0  0  0
    2.0490    4.6471    0.0000 O   0  0  0  0  0  0  0  0  0  0  0  0
    1.2990    5.9462    0.0000 C   0  0  0  0  0  0  0  0  0  0  0  0
    2.5981    6.6962    0.0000 C   0  0  0  0  0  0  0  0  0  0  0  0
    0.0000    5.1962    0.0000 C   0  0  0  0  0  0  0  0  0  0  0  0
    0.5490    7.2452    0.0000 C   0  0  0  0  0  0  0  0  0  0  0  0
  1  2  1  0
  2  3  1  0
  2  4  1  0
  2  5  1  0
  5  6  1  0
  6  7  1  0
  7  8  1  0
  8  9  1  0
  9 10  1  0
  9 11  1  0
  9 12  1  0
 12 13  1  0
 12 14  1  0
 12 15  1  0
 15 16  1  0
 15 17  1  0
 15 18  1  0
 18 19  1  0
 18 20  1  0
 18 21  1  0
 21 22  1  0
 21 23  1  0
 21 24  1  0
 24 25  1  0
 24 26  1  0
  6 27  1  0
 27 28  1  0
 28 29  1  0
 29 30  1  0
 29 31  1  0
 29 32  1  0
 32 33  1  0
 32 34  1  0
 32 35  1  0
 35 36  1  0
 35 37  1  0
 35 38  1  0
 38 39  1  0
 38 40  1  0
 38 41  1  0
 41 42  1  0
 41 43  1  0
 41 44  1  0
 44 45  1  0
 44 46  1  0
  6 47  1  0
 47 48  1  0
 48 49  1  0
 48 50  1  0
 48 51  1  0
M  END
$$$$

     RDKit          2D

 12 11  0  0  0  0  0  0  0  0999 V2000
    0.0000    0.0000    0.0000 C   0  0  0  0  0  0  0  0  0  0  0  0
    1.2990    0.7500    0.0000 C   0  0  0  0  0  0  0  0  0  0  0  0
    2.5981   -0.0000    0.0000 C   0  0  0  0  0  0  0  0  0  0  0  0
    3.8971    0.7500    0.0000 C   0  0  0  0  0  0  0  0  0  0  0  0
    3.8971    2.2500    0.0000 O   0  0  0  0  0  0  0  0  0  0  0  0
    5.1962   -0.0000    0.0000 C   0  0  0  0  0  0  0  0  0  0  0  0
    5.9462    1.2990    0.0000 F   0  0  0  0  0  0  0  0  0  0  0  0
    4.4462   -1.2990    0.0000 F   0  0  0  0  0  0  0  0  0  0  0  0
    6.4952   -0.7500    0.0000 C   0  0  0  0  0  0  0  0  0  0  0  0
    7.7942   -1.5000    0.0000 F   0  0  0  0  0  0  0  0  0  0  0  0
    5.7452   -2.0490    0.0000 F   0  0  0  0  0  0  0  0  0  0  0  0
    7.2452    0.5490    0.0000 F   0  0  0  0  0  0  0  0  0  0  0  0
  1  2  1  0
  2  3  1  0
  3  4  1  0
  4  5  2  0
  4  6  1  0
  6  7  1  0
  6  8  1  0
  6  9  1  0
  9 10  1  0
  9 11  1  0
  9 12  1  0
M  END
$$$$

     RDKit          2D

 18 18  0  0  0  0  0  0  0  0999 V2000
    3.7500    1.2990    0.0000 O   0  0  0  0  0  0  0  0  0  0  0  0
    3.0000    0.0000    0.0000 C   0  0  0  0  0  0  0  0  0  0  0  0
    1.5000    0.0000    0.0000 C   0  0  0  0  0  0  0  0  0  0  0  0
    0.7500   -1.2990    0.0000 C   0  0  0  0  0  0  0  0  0  0  0  0
   -0.7500   -1.2990    0.0000 C   0  0  0  0  0  0  0  0  0  0  0  0
   -1.5000    0.0000    0.0000 C   0  0  0  0  0  0  0  0  0  0  0  0
   -0.7500    1.2990    0.0000 C   0  0  0  0  0  0  0  0  0  0  0  0
    0.7500    1.2990    0.0000 C   0  0  0  0  0  0  0  0  0  0  0  0
    3.7500   -1.2990    0.0000 C   0  0  0  0  0  0  0  0  0  0  0  0
    5.0490   -0.5490    0.0000 F   0  0  0  0  0  0  0  0  0  0  0  0
    2.4510   -2.0490    0.0000 F   0  0  0  0  0  0  0  0  0  0  0  0
    4.5000   -2.5981    0.0000 C   0  0  0  0  0  0  0  0  0  0  0  0
    3.2010   -3.3481    0.0000 F   0  0  0  0  0  0  0  0  0  0  0  0
    5.7990   -1.8481    0.0000 F   0  0  0  0  0  0  0  0  0  0  0  0
    5.2500   -3.8971    0.0000 C   0  0  0  0  0  0  0  0  0  0  0  0
    6.0000   -5.1962    0.0000 F   0  0  0  0  0  0  0  0  0  0  0  0
    6.5490   -3.1471    0.0000 F   0  0  0  0  0  0  0  0  0  0  0  0
    3.9510   -4.6471    0.0000 F   0  0  0  0  0  0  0  0  0  0  0  0
  1  2  2  0
  2  3  1  0
  3  4  2  0
  4  5  1  0
  5  6  2  0
  6  7  1  0
  7  8  2  0
  2  9  1  0
  9 10  1  0
  9 11  1  0
  9 12  1  0
 12 13  1  0
 12 14  1  0
 12 15  1  0
 15 16  1  0
 15 17  1  0
 15 18  1  0
  8  3  1  0
M  END
$$$$

     RDKit          2D

 11 10  0  0  0  0  0  0  0  0999 V2000
    0.0000    0.0000    0.0000 C   0  0  0  0  0  0  0  0  0  0  0  0
    1.2990    0.7500    0.0000 S   0  0  0  0  0  0  0  0  0  0  0  0
    2.5981   -0.0000    0.0000 C   0  0  0  0  0  0  0  0  0  0  0  0
    2.5981   -1.5000    0.0000 N   0  0  0  0  0  0  0  0  0  0  0  0
    3.8971    0.7500    0.0000 C   0  0  0  0  0  0  0  0  0  0  0  0
    3.1471    2.0490    0.0000 F   0  0  0  0  0  0  0  0  0  0  0  0
    4.6471   -0.5490    0.0000 F   0  0  0  0  0  0  0  0  0  0  0  0
    5.1962    1.5000    0.0000 C   0  0  0  0  0  0  0  0  0  0  0  0
    6.4952    2.2500    0.0000 F   0  0  0  0  0  0  0  0  0  0  0  0
    4.4462    2.7990    0.0000 F   0  0  0  0  0  0  0  0  0  0  0  0
    5.9462    0.2010    0.0000 F   0  0  0  0  0  0  0  0  0  0  0  0
  1  2  1  0
  2  3  1  0
  3  4  2  0
  3  5  1  0
  5  6  1  0
  5  7  1  0
  5  8  1  0
  8  9  1  0
  8 10  1  0
  8 11  1  0
M  END
$$$$

     RDKit          2D

 22 21  0  0  0  0  0  0  0  0999 V2000
    0.0000    0.0000    0.0000 C   0  0  0  0  0  0  0  0  0  0  0  0
    1.2990    0.7500    0.0000 C   0  0  0  0  0  0  0  0  0  0  0  0
    2.5981    1.5000    0.0000 C   0  0  0  0  0  0  0  0  0  0  0  0
    0.5490    2.0490    0.0000 O   0  0  0  0  0  0  0  0  0  0  0  0
    2.0490   -0.5490    0.0000 C   0  0  0  0  0  0  0  0  0  0  0  0
    3.3481    0.2010    0.0000 F   0  0  0  0  0  0  0  0  0  0  0  0
    0.7500   -1.2990    0.0000 F   0  0  0  0  0  0  0  0  0  0  0  0
    2.7990   -1.8481    0.0000 C   0  0  0  0  0  0  0  0  0  0  0  0
    1.5000   -2.5981    0.0000 F   0  0  0  0  0  0  0  0  0  0  0  0
    4.0981   -1.0981    0.0000 F   0  0  0  0  0  0  0  0  0  0  0  0
    3.5490   -3.1471    0.0000 C   0  0  0  0  0  0  0  0  0  0  0  0
    4.8481   -2.3971    0.0000 F   0  0  0  0  0  0  0  0  0  0  0  0
    2.2500   -3.8971    0.0000 F   0  0  0  0  0  0  0  0  0  0  0  0
    4.2990   -4.4462    0.0000 C   0  0  0  0  0  0  0  0  0  0  0  0
    5.5981   -3.6962    0.0000 F   0  0  0  0  0  0  0  0  0  0  0  0
    3.0000   -5.1962    0.0000 F   0  0  0  0  0  0  0  0  0  0  0  0
    5.0490   -5.7452    0.0000 C   0  0  0  0  0  0  0  0  0  0  0  0
    3.7500   -6.4952    0.0000 F   0  0  0  0  0  0  0  0  0  0  0  0
    6.3481   -4.9952    0.0000 F   0  0  0  0  0  0  0  0  0  0  0  0
    5.7990   -7.0442    0.0000 C   0  0  0  0  0  0  0  0  0  0  0  0
    5.0490   -8.3433    0.0000 F   0  0  0  0  0  0  0  0  0  0  0  0
    7.2990   -7.0442    0.0000 F   0  0  0  0  0  0  0  0  0  0  0  0
  1  2  1  0
  2  3  1  0
  2  4  1  0
  2  5  1  0
  5  6  1  0
  5  7  1  0
  5  8  1  0
  8  9  1  0
  8 10  1  0
  8 11  1  0
 11 12  1  0
 11 13  1  0
 11 14  1  0
 14 15  1  0
 14 16  1  0
 14 17  1  0
 17 18  1  0
 17 19  1  0
 17 20  1  0
 20 21  1  0
 20 22  1  0
M  END
$$$$

     RDKit          2D

 31 31  0  0  0  0  0  0  0  0999 V2000
   -0.0000    2.2990    0.0000 O   0  0  0  0  0  0  0  0  0  0  0  0
    0.0000    3.7990    0.0000 C   0  0  0  0  0  0  0  0  0  0  0  0
   -1.2990    4.5490    0.0000 O   0  0  0  0  0  0  0  0  0  0  0  0
    1.2990    4.5490    0.0000 C   0  0  0  0  0  0  0  0  0  0  0  0
    2.0490    3.2500    0.0000 F   0  0  0  0  0  0  0  0  0  0  0  0
    0.5490    5.8481    0.0000 F   0  0  0  0  0  0  0  0  0  0  0  0
    2.5981    5.2990    0.0000 C   0  0  0  0  0  0  0  0  0  0  0  0
    1.8481    6.5981    0.0000 F   0  0  0  0  0  0  0  0  0  0  0  0
    3.3481    4.0000    0.0000 F   0  0  0  0  0  0  0  0  0  0  0  0
    3.8971    6.0490    0.0000 C   0  0  0  0  0  0  0  0  0  0  0  0
    4.6471    4.7500    0.0000 F   0  0  0  0  0  0  0  0  0  0  0  0
    3.1471    7.3481    0.0000 F   0  0  0  0  0  0  0  0  0  0  0  0
    5.1962    6.7990    0.0000 C   0  0  0  0  0  0  0  0  0  0  0  0
    4.4462    8.0981    0.0000 F   0  0  0  0  0  0  0  0  0  0  0  0
    5.9462    5.5000    0.0000 F   0  0  0  0  0  0  0  0  0  0  0  0
    6.4952    7.5490    0.0000 C   0  0  0  0  0  0  0  0  0  0  0  0
    7.7942    8.2990    0.0000 F   0  0  0  0  0  0  0  0  0  0  0  0
    7.2452    6.2500    0.0000 F   0  0  0  0  0  0  0  0  0  0  0  0
    5.7452    8.8481    0.0000 F   0  0  0  0  0  0  0  0  0  0  0  0
    1.5000    0.0000    0.0000 C   0  0  0  0  0  0  0  0  0  0  0  0
    0.7500   -1.2990    0.0000 C   0  0  0  0  0  0  0  0  0  0  0  0
   -0.7500   -1.2990    0.0000 C   0  0  0  0  0  0  0  0  0  0  0  0
   -1.5000    0.0000    0.0000 C   0  0  0  0  0  0  0  0  0  0  0  0
   -3.0000    0.0000    0.0000 N   0  0  0  0  0  0  0  0  0  0  0  0
   -3.7500    1.2990    0.0000 C   0  0  0  0  0  0  0  0  0  0  0  0
   -5.2500    1.2990    0.0000 C   0  0  0  0  0  0  0  0  0  0  0  0
   -6.0000    0.0000    0.0000 N   0  0  0  0  0  0  0  0  0  0  0  0
   -5.2500   -1.2990    0.0000 C   0  0  0  0  0  0  0  0  0  0  0  0
   -3.7500   -1.2990    0.0000 C   0  0  0  0  0  0  0  0  0  0  0  0
   -0.7500    1.2990    0.0000 C   0  0  0  0  0  0  0  0  0  0  0  0
    0.7500    1.2990    0.0000 C   0  0  0  0  0  0  0  0  0  0  0  0
  1  2  2  0
  2  3  1  0
  2  4  1  0
  4  5  1  0
  4  6  1  0
  4  7  1  0
  7  8  1  0
  7  9  1  0
  7 10  1  0
 10 11  1  0
 10 12  1  0
 10 13  1  0
 13 14  1  0
 13 15  1  0
 13 16  1  0
 16 17  1  0
 16 18  1  0
 16 19  1  0
 20 21  2  0
 21 22  1  0
 22 23  2  0
 23 24  1  0
 24 25  1  0
 25 26  1  0
 26 27  1  0
 27 28  1  0
 28 29  1  0
 23 30  1  0
 30 31  2  0
 31 20  1  0
 29 24  1  0
M  END
$$$$

     RDKit          2D

 19 18  0  0  0  0  0  0  0  0999 V2000
   -1.2990    2.2500    0.0000 O   0  0  0  0  0  0  0  0  0  0  0  0
   -1.2990    0.7500    0.0000 N   0  0  0  0  0  0  0  0  0  0  0  0
   -2.5981    0.0000    0.0000 O   0  0  0  0  0  0  0  0  0  0  0  0
    0.0000    0.0000    0.0000 C   0  0  0  0  0  0  0  0  0  0  0  0
    1.2990    0.7500    0.0000 C   0  0  0  0  0  0  0  0  0  0  0  0
    2.5981   -0.0000    0.0000 C   0  0  0  0  0  0  0  0  0  0  0  0
    3.8971    0.7500    0.0000 N   0  0  0  0  0  0  0  0  0  0  0  0
    3.8971    2.2500    0.0000 O   0  0  0  0  0  0  0  0  0  0  0  0
    5.1962   -0.0000    0.0000 O   0  0  0  0  0  0  0  0  0  0  0  0
    1.2990    2.2500    0.0000 C   0  0  0  0  0  0  0  0  0  0  0  0
    2.7990    2.2500    0.0000 F   0  0  0  0  0  0  0  0  0  0  0  0
   -0.2010    2.2500    0.0000 F   0  0  0  0  0  0  0  0  0  0  0  0
    1.2990    3.7500    0.0000 C   0  0  0  0  0  0  0  0  0  0  0  0
    2.7990    3.7500    0.0000 F   0  0  0  0  0  0  0  0  0  0  0  0
   -0.2010    3.7500    0.0000 F   0  0  0  0  0  0  0  0  0  0  0  0
    1.2990    5.2500    0.0000 C   0  0  0  0  0  0  0  0  0  0  0  0
    1.2990    6.7500    0.0000 F   0  0  0  0  0  0  0  0  0  0  0  0
   -0.2010    5.2500    0.0000 F   0  0  0  0  0  0  0  0  0  0  0  0
    2.7990    5.2500    0.0000 F   0  0  0  0  0  0  0  0  0  0  0  0
  1  2  2  0
  2  3  1  0
  2  4  1  0
  4  5  1  0
  5  6  1  0
  6  7  1  0
  7  8  2  0
  7  9  1  0
  5 10  1  0
 10 11  1  0
 10 12  1  0
 10 13  1  0
 13 14  1  0
 13 15  1  0
 13 16  1  0
 16 17  1  0
 16 18  1  0
 16 19  1  0
M  CHG  4   2   1   3  -1   7   1   9  -1
M  END
$$$$

     RDKit          2D

 24 24  0  0  0  0  0  0  0  0999 V2000
    2.3660    3.0000    0.0000 F   0  0  0  0  0  0  0  0  0  0  0  0
    2.3660    1.5000    0.0000 C   0  0  0  0  0  0  0  0  0  0  0  0
    3.8660    1.5000    0.0000 F   0  0  0  0  0  0  0  0  0  0  0  0
    0.8660    1.5000    0.0000 F   0  0  0  0  0  0  0  0  0  0  0  0
    2.3660    0.0000    0.0000 C   0  0  0  0  0  0  0  0  0  0  0  0
    3.8660    0.0000    0.0000 F   0  0  0  0  0  0  0  0  0  0  0  0
    0.8660    0.0000    0.0000 C   0  0  0  0  0  0  0  0  0  0  0  0
   -0.4330    0.7500    0.0000 N   0  0  0  0  0  0  0  0  0  0  0  0
   -0.4330   -0.7500    0.0000 S   0  0  0  0  0  0  0  0  0  0  0  0
   -1.5250   -0.8072    0.0000 F   0  0  0  0  0  0  0  0  0  0  0  0
    0.0800   -2.1595    0.0000 C   0  0  0  0  0  0  0  0  0  0  0  0
    0.5930   -3.5691    0.0000 F   0  0  0  0  0  0  0  0  0  0  0  0
    1.4896   -1.6465    0.0000 C   0  0  0  0  0  0  0  0  0  0  0  0
    2.2824   -1.5632    0.0000 F   0  0  0  0  0  0  0  0  0  0  0  0
    1.3867   -0.6677    0.0000 F   0  0  0  0  0  0  0  0  0  0  0  0
    1.8269   -3.1081    0.0000 F   0  0  0  0  0  0  0  0  0  0  0  0
   -1.3295   -2.6726    0.0000 C   0  0  0  0  0  0  0  0  0  0  0  0
   -2.7391   -3.1856    0.0000 F   0  0  0  0  0  0  0  0  0  0  0  0
   -0.8165   -4.0821    0.0000 F   0  0  0  0  0  0  0  0  0  0  0  0
   -1.8260   -1.6983    0.0000 F   0  0  0  0  0  0  0  0  0  0  0  0
    2.3660   -1.5000    0.0000 C   0  0  0  0  0  0  0  0  0  0  0  0
    2.5489   -2.9888    0.0000 F   0  0  0  0  0  0  0  0  0  0  0  0
    3.8660   -1.5000    0.0000 F   0  0  0  0  0  0  0  0  0  0  0  0
    0.9106   -1.1370    0.0000 F   0  0  0  0  0  0  0  0  0  0  0  0
  1  2  1  0
  2  3  1  0
  2  4  1  0
  2  5  1  0
  5  6  1  0
  5  7  1  0
  7  8  2  0
  8  9  1  0
  9 10  1  0
  9 11  1  0
 11 12  1  0
 11 13  1  0
 13 14  1  0
 13 15  1  0
 13 16  1  0
 11 17  1  0
 17 18  1  0
 17 19  1  0
 17 20  1  0
  5 21  1  0
 21 22  1  0
 21 23  1  0
 21 24  1  0
  9  7  1  0
M  END
$$$$

     RDKit          2D

 10 10  0  0  0  0  0  0  0  0999 V2000
    2.1213    1.0607    0.0000 F   0  0  0  0  0  0  0  0  0  0  0  0
    1.0607    0.0000    0.0000 C   0  0  0  0  0  0  0  0  0  0  0  0
    2.1213   -1.0607    0.0000 F   0  0  0  0  0  0  0  0  0  0  0  0
   -0.0000   -1.0607    0.0000 C   0  0  0  0  0  0  0  0  0  0  0  0
   -0.0000   -2.5607    0.0000 I   0  0  0  0  0  0  0  0  0  0  0  0
   -1.0607    0.0000    0.0000 C   0  0  0  0  0  0  0  0  0  0  0  0
   -2.5607    0.0000    0.0000 I   0  0  0  0  0  0  0  0  0  0  0  0
    0.0000    1.0607    0.0000 C   0  0  0  0  0  0  0  0  0  0  0  0
   -1.0607    2.1213    0.0000 F   0  0  0  0  0  0  0  0  0  0  0  0
    1.0607    2.1213    0.0000 F   0  0  0  0  0  0  0  0  0  0  0  0
  1  2  1  0
  2  3  1  0
  2  4  1  0
  4  5  1  0
  4  6  2  0
  6  7  1  0
  6  8  1  0
  8  9  1  0
  8 10  1  0
  8  2  1  0
M  END
$$$$

     RDKit          2D

 34 33  0  0  0  0  0  0  0  0999 V2000
   -1.2990    0.7500    0.0000 O   0  0  0  0  0  0  0  0  0  0  0  0
    0.0000    0.0000    0.0000 C   0  0  0  0  0  0  0  0  0  0  0  0
    1.2990    0.7500    0.0000 C   0  0  0  0  0  0  0  0  0  0  0  0
    2.5981   -0.0000    0.0000 C   0  0  0  0  0  0  0  0  0  0  0  0
    3.3481    1.2990    0.0000 F   0  0  0  0  0  0  0  0  0  0  0  0
    1.8481   -1.2990    0.0000 F   0  0  0  0  0  0  0  0  0  0  0  0
    3.8971   -0.7500    0.0000 C   0  0  0  0  0  0  0  0  0  0  0  0
    3.1471   -2.0490    0.0000 F   0  0  0  0  0  0  0  0  0  0  0  0
    4.6471    0.5490    0.0000 F   0  0  0  0  0  0  0  0  0  0  0  0
    5.1962   -1.5000    0.0000 C   0  0  0  0  0  0  0  0  0  0  0  0
    5.9462   -0.2010    0.0000 F   0  0  0  0  0  0  0  0  0  0  0  0
    4.4462   -2.7990    0.0000 F   0  0  0  0  0  0  0  0  0  0  0  0
    6.4952   -2.2500    0.0000 C   0  0  0  0  0  0  0  0  0  0  0  0
    5.7452   -3.5490    0.0000 F   0  0  0  0  0  0  0  0  0  0  0  0
    7.2452   -0.9510    0.0000 F   0  0  0  0  0  0  0  0  0  0  0  0
    7.7942   -3.0000    0.0000 C   0  0  0  0  0  0  0  0  0  0  0  0
    8.5442   -1.7010    0.0000 F   0  0  0  0  0  0  0  0  0  0  0  0
    7.0442   -4.2990    0.0000 F   0  0  0  0  0  0  0  0  0  0  0  0
    9.0933   -3.7500    0.0000 C   0  0  0  0  0  0  0  0  0  0  0  0
    8.3433   -5.0490    0.0000 F   0  0  0  0  0  0  0  0  0  0  0  0
    9.8433   -2.4510    0.0000 F   0  0  0  0  0  0  0  0  0  0  0  0
   10.3923   -4.5000    0.0000 C   0  0  0  0  0  0  0  0  0  0  0  0
   11.1423   -3.2010    0.0000 F   0  0  0  0  0  0  0  0  0  0  0  0
    9.6423   -5.7990    0.0000 F   0  0  0  0  0  0  0  0  0  0  0  0
   11.6913   -5.2500    0.0000 C   0  0  0  0  0  0  0  0  0  0  0  0
   10.9413   -6.5490    0.0000 F   0  0  0  0  0  0  0  0  0  0  0  0
   12.4413   -3.9510    0.0000 F   0  0  0  0  0  0  0  0  0  0  0  0
   12.9904   -6.0000    0.0000 C   0  0  0  0  0  0  0  0  0  0  0  0
   13.7404   -4.7010    0.0000 F   0  0  0  0  0  0  0  0  0  0  0  0
   12.2404   -7.2990    0.0000 F   0  0  0  0  0  0  0  0  0  0  0  0
   14.2894   -6.7500    0.0000 C   0  0  0  0  0  0  0  0  0  0  0  0
   15.5885   -7.5000    0.0000 F   0  0  0  0  0  0  0  0  0  0  0  0
   13.5394   -8.0490    0.0000 F   0  0  0  0  0  0  0  0  0  0  0  0
   15.0394   -5.4510    0.0000 F   0  0  0  0  0  0  0  0  0  0  0  0
  1  2  1  0
  2  3  1  0
  3  4  1  0
  4  5  1  0
  4  6  1  0
  4  7  1  0
  7  8  1  0
  7  9  1  0
  7 10  1  0
 10 11  1  0
 10 12  1  0
 10 13  1  0
 13 14  1  0
 13 15  1  0
 13 16  1  0
 16 17  1  0
 16 18  1  0
 16 19  1  0
 19 20  1  0
 19 21  1  0
 19 22  1  0
 22 23  1  0
 22 24  1  0
 22 25  1  0
 25 26  1  0
 25 27  1  0
 25 28  1  0
 28 29  1  0
 28 30  1  0
 28 31  1  0
 31 32  1  0
 31 33  1  0
 31 34  1  0
M  END
$$$$

     RDKit          2D

 22 22  0  0  0  0  0  0  0  0999 V2000
    7.9298    1.1351    0.0000 C   0  0  0  0  0  0  0  0  0  0  0  0
    6.5490    0.5490    0.0000 C   0  0  0  0  0  0  0  0  0  0  0  0
    5.2500    1.2990    0.0000 C   0  0  0  0  0  0  0  0  0  0  0  0
    4.5000    0.0000    0.0000 O   0  0  0  0  0  0  0  0  0  0  0  0
    5.2500   -1.2990    0.0000 S   0  0  0  0  0  0  0  0  0  0  0  0
    3.9510   -2.0490    0.0000 O   0  0  0  0  0  0  0  0  0  0  0  0
    6.5490   -0.5490    0.0000 O   0  0  0  0  0  0  0  0  0  0  0  0
    6.0000   -2.5981    0.0000 C   0  0  0  0  0  0  0  0  0  0  0  0
    5.2500   -3.8971    0.0000 C   0  0  0  0  0  0  0  0  0  0  0  0
    6.0000   -5.1962    0.0000 C   0  0  0  0  0  0  0  0  0  0  0  0
    7.5000   -5.1962    0.0000 C   0  0  0  0  0  0  0  0  0  0  0  0
    8.2500   -6.4952    0.0000 Br  0  0  0  0  0  0  0  0  0  0  0  0
    8.2500   -3.8971    0.0000 C   0  0  0  0  0  0  0  0  0  0  0  0
    7.5000   -2.5981    0.0000 C   0  0  0  0  0  0  0  0  0  0  0  0
    3.9510    2.0490    0.0000 C   0  0  0  0  0  0  0  0  0  0  0  0
    2.6519    2.7990    0.0000 F   0  0  0  0  0  0  0  0  0  0  0  0
    3.2010    0.7500    0.0000 F   0  0  0  0  0  0  0  0  0  0  0  0
    4.2970    2.8644    0.0000 F   0  0  0  0  0  0  0  0  0  0  0  0
    6.0000    2.5981    0.0000 C   0  0  0  0  0  0  0  0  0  0  0  0
    6.7500    3.8971    0.0000 F   0  0  0  0  0  0  0  0  0  0  0  0
    5.2926    3.1311    0.0000 F   0  0  0  0  0  0  0  0  0  0  0  0
    7.3808    2.0120    0.0000 F   0  0  0  0  0  0  0  0  0  0  0  0
  1  2  2  0
  2  3  1  0
  3  4  1  0
  4  5  1  0
  5  6  2  0
  5  7  2  0
  5  8  1  0
  8  9  2  0
  9 10  1  0
 10 11  2  0
 11 12  1  0
 11 13  1  0
 13 14  2  0
  3 15  1  0
 15 16  1  0
 15 17  1  0
 15 18  1  0
  3 19  1  0
 19 20  1  0
 19 21  1  0
 19 22  1  0
 14  8  1  0
M  END
$$$$

     RDKit          2D

 18 18  0  0  0  0  0  0  0  0999 V2000
    3.7500    1.2990    0.0000 O   0  0  0  0  0  0  0  0  0  0  0  0
    3.0000    0.0000    0.0000 C   0  0  0  0  0  0  0  0  0  0  0  0
    3.7500   -1.2990    0.0000 C   0  0  0  0  0  0  0  0  0  0  0  0
    5.2500   -1.2990    0.0000 C   0  0  0  0  0  0  0  0  0  0  0  0
    6.0000   -2.5981    0.0000 C   0  0  0  0  0  0  0  0  0  0  0  0
    6.7500   -3.8971    0.0000 F   0  0  0  0  0  0  0  0  0  0  0  0
    7.2990   -1.8481    0.0000 F   0  0  0  0  0  0  0  0  0  0  0  0
    4.7010   -3.3481    0.0000 F   0  0  0  0  0  0  0  0  0  0  0  0
    6.0000    0.0000    0.0000 C   0  0  0  0  0  0  0  0  0  0  0  0
    6.7500    1.2990    0.0000 F   0  0  0  0  0  0  0  0  0  0  0  0
    7.2990   -0.7500    0.0000 F   0  0  0  0  0  0  0  0  0  0  0  0
    4.7010    0.7500    0.0000 F   0  0  0  0  0  0  0  0  0  0  0  0
    1.5000    0.0000    0.0000 C   0  0  0  0  0  0  0  0  0  0  0  0
    0.7500   -1.2990    0.0000 C   0  0  0  0  0  0  0  0  0  0  0  0
   -0.7500   -1.2990    0.0000 C   0  0  0  0  0  0  0  0  0  0  0  0
   -1.5000    0.0000    0.0000 C   0  0  0  0  0  0  0  0  0  0  0  0
   -0.7500    1.2990    0.0000 C   0  0  0  0  0  0  0  0  0  0  0  0
    0.7500    1.2990    0.0000 C   0  0  0  0  0  0  0  0  0  0  0  0
  1  2  2  0
  2  3  1  0
  3  4  2  0
  4  5  1  0
  5  6  1  0
  5  7  1  0
  5  8  1  0
  4  9  1  0
  9 10  1  0
  9 11  1  0
  9 12  1  0
  2 13  1  0
 13 14  2  0
 14 15  1  0
 15 16  2  0
 16 17  1  0
 17 18  2  0
 18 13  1  0
M  END
$$$$

     RDKit          2D

 28 28  0  0  0  0  0  0  0  0999 V2000
    5.0260   -3.8971    0.0000 O   0  0  0  0  0  0  0  0  0  0  0  0
    5.7760   -2.5981    0.0000 C   0  0  0  0  0  0  0  0  0  0  0  0
    7.2760   -2.5981    0.0000 O   0  0  0  0  0  0  0  0  0  0  0  0
    5.0260   -1.2990    0.0000 C   0  0  0  0  0  0  0  0  0  0  0  0
    3.5260   -1.2990    0.0000 N   0  0  0  0  0  0  0  0  0  0  0  0
    2.7760    0.0000    0.0000 C   0  0  0  0  0  0  0  0  0  0  0  0
    3.5260    1.2990    0.0000 O   0  0  0  0  0  0  0  0  0  0  0  0
    1.2760    0.0000    0.0000 C   0  0  0  0  0  0  0  0  0  0  0  0
    0.3943    1.2135    0.0000 N   0  0  0  0  0  0  0  0  0  0  0  0
   -1.0323    0.7500    0.0000 C   0  0  0  0  0  0  0  0  0  0  0  0
   -2.5241    0.5932    0.0000 C   0  0  0  0  0  0  0  0  0  0  0  0
   -4.0159    0.4364    0.0000 F   0  0  0  0  0  0  0  0  0  0  0  0
   -2.3673   -0.8986    0.0000 F   0  0  0  0  0  0  0  0  0  0  0  0
   -2.7034    1.3699    0.0000 F   0  0  0  0  0  0  0  0  0  0  0  0
   -1.3442    2.2172    0.0000 C   0  0  0  0  0  0  0  0  0  0  0  0
   -1.6560    3.6844    0.0000 F   0  0  0  0  0  0  0  0  0  0  0  0
    0.1231    2.5291    0.0000 F   0  0  0  0  0  0  0  0  0  0  0  0
   -2.1383    2.1478    0.0000 F   0  0  0  0  0  0  0  0  0  0  0  0
   -1.0323   -0.7500    0.0000 O   0  0  0  0  0  0  0  0  0  0  0  0
    0.3943   -1.2135    0.0000 C   0  0  0  0  0  0  0  0  0  0  0  0
    1.6933   -1.9635    0.0000 C   0  0  0  0  0  0  0  0  0  0  0  0
    2.9924   -2.7135    0.0000 F   0  0  0  0  0  0  0  0  0  0  0  0
    1.1073   -3.3443    0.0000 F   0  0  0  0  0  0  0  0  0  0  0  0
    2.7354   -0.8846    0.0000 F   0  0  0  0  0  0  0  0  0  0  0  0
   -0.2158   -2.5838    0.0000 C   0  0  0  0  0  0  0  0  0  0  0  0
   -0.8259   -3.9542    0.0000 F   0  0  0  0  0  0  0  0  0  0  0  0
   -1.5861   -1.9737    0.0000 F   0  0  0  0  0  0  0  0  0  0  0  0
    1.0699   -3.3564    0.0000 F   0  0  0  0  0  0  0  0  0  0  0  0
  1  2  2  0
  2  3  1  0
  2  4  1  0
  4  5  1  0
  5  6  1  0
  6  7  2  0
  6  8  1  0
  8  9  1  0
  9 10  1  0
 10 11  1  0
 11 12  1  0
 11 13  1  0
 11 14  1  0
 10 15  1  0
 15 16  1  0
 15 17  1  0
 15 18  1  0
 10 19  1  0
 19 20  1  0
 20 21  1  0
 21 22  1  0
 21 23  1  0
 21 24  1  0
 20 25  1  0
 25 26  1  0
 25 27  1  0
 25 28  1  0
 20  8  1  0
M  END
$$$$

     RDKit          2D

 21 21  0  0  0  0  0  0  0  0999 V2000
    5.2388   -1.1162    0.0000 C   0  0  0  0  0  0  0  0  0  0  0  0
    3.7500   -1.2990    0.0000 C   0  0  0  0  0  0  0  0  0  0  0  0
    3.0000    0.0000    0.0000 C   0  0  0  0  0  0  0  0  0  0  0  0
    3.7500    1.2990    0.0000 O   0  0  0  0  0  0  0  0  0  0  0  0
    1.5000    0.0000    0.0000 C   0  0  0  0  0  0  0  0  0  0  0  0
    0.7500   -1.2990    0.0000 C   0  0  0  0  0  0  0  0  0  0  0  0
   -0.7500   -1.2990    0.0000 C   0  0  0  0  0  0  0  0  0  0  0  0
   -1.5000    0.0000    0.0000 C   0  0  0  0  0  0  0  0  0  0  0  0
   -3.0000    0.0000    0.0000 F   0  0  0  0  0  0  0  0  0  0  0  0
   -0.7500    1.2990    0.0000 C   0  0  0  0  0  0  0  0  0  0  0  0
    0.7500    1.2990    0.0000 C   0  0  0  0  0  0  0  0  0  0  0  0
    3.0000   -2.5981    0.0000 C   0  0  0  0  0  0  0  0  0  0  0  0
    1.7010   -1.8481    0.0000 O   0  0  0  0  0  0  0  0  0  0  0  0
    2.2500   -3.8971    0.0000 C   0  0  0  0  0  0  0  0  0  0  0  0
    1.5000   -5.1962    0.0000 F   0  0  0  0  0  0  0  0  0  0  0  0
    0.9510   -3.1471    0.0000 F   0  0  0  0  0  0  0  0  0  0  0  0
    2.9574   -4.4302    0.0000 F   0  0  0  0  0  0  0  0  0  0  0  0
    4.2990   -3.3481    0.0000 C   0  0  0  0  0  0  0  0  0  0  0  0
    5.5981   -4.0981    0.0000 F   0  0  0  0  0  0  0  0  0  0  0  0
    5.2018   -2.1501    0.0000 F   0  0  0  0  0  0  0  0  0  0  0  0
    3.9530   -4.1634    0.0000 F   0  0  0  0  0  0  0  0  0  0  0  0
  1  2  1  0
  2  3  1  0
  3  4  2  0
  3  5  1  0
  5  6  2  0
  6  7  1  0
  7  8  2  0
  8  9  1  0
  8 10  1  0
 10 11  2  0
  2 12  1  0
 12 13  1  0
 12 14  1  0
 14 15  1  0
 14 16  1  0
 14 17  1  0
 12 18  1  0
 18 19  1  0
 18 20  1  0
 18 21  1  0
 11  5  1  0
M  END
$$$$

     RDKit          2D

 15 17  0  0  0  0  0  0  0  0999 V2000
   -1.7634   -6.0344    0.0000 F   0  0  0  0  0  0  0  0  0  0  0  0
   -0.8817   -4.8208    0.0000 C   0  0  0  0  0  0  0  0  0  0  0  0
    0.3318   -5.7025    0.0000 F   0  0  0  0  0  0  0  0  0  0  0  0
    0.0000   -3.6073    0.0000 C   0  0  0  0  0  0  0  0  0  0  0  0
    1.2135   -2.7256    0.0000 C   0  0  0  0  0  0  0  0  0  0  0  0
    0.7500   -1.2990    0.0000 C   0  0  0  0  0  0  0  0  0  0  0  0
    1.5000    0.0000    0.0000 C   0  0  0  0  0  0  0  0  0  0  0  0
    0.7500    1.2990    0.0000 C   0  0  0  0  0  0  0  0  0  0  0  0
   -0.7500    1.2990    0.0000 C   0  0  0  0  0  0  0  0  0  0  0  0
   -1.5000    0.0000    0.0000 C   0  0  0  0  0  0  0  0  0  0  0  0
   -0.7500   -1.2990    0.0000 C   0  0  0  0  0  0  0  0  0  0  0  0
   -1.2135   -2.7256    0.0000 C   0  0  0  0  0  0  0  0  0  0  0  0
   -2.0952   -3.9391    0.0000 C   0  0  0  0  0  0  0  0  0  0  0  0
   -3.3087   -3.0575    0.0000 F   0  0  0  0  0  0  0  0  0  0  0  0
   -2.9769   -5.1527    0.0000 F   0  0  0  0  0  0  0  0  0  0  0  0
  1  2  1  0
  2  3  1  0
  2  4  1  0
  4  5  1  0
  5  6  1  0
  6  7  2  0
  7  8  1  0
  8  9  2  0
  9 10  1  0
 10 11  2  0
 11 12  1  0
 12 13  1  0
 13 14  1  0
 13 15  1  0
 13  2  1  0
 12  4  1  0
 11  6  1  0
M  END
$$$$

     RDKit          2D

 18 18  0  0  0  0  0  0  0  0999 V2000
    3.0000    0.0000    0.0000 C   0  0  0  0  0  0  0  0  0  0  0  0
    1.5000    0.0000    0.0000 C   0  0  0  0  0  0  0  0  0  0  0  0
    0.7500   -1.2990    0.0000 C   0  0  0  0  0  0  0  0  0  0  0  0
   -0.7500   -1.2990    0.0000 C   0  0  0  0  0  0  0  0  0  0  0  0
   -1.5000    0.0000    0.0000 C   0  0  0  0  0  0  0  0  0  0  0  0
   -3.0000    0.0000    0.0000 N   0  0  0  0  0  0  0  0  0  0  0  0
   -0.7500    1.2990    0.0000 C   0  0  0  0  0  0  0  0  0  0  0  0
   -1.5000    2.5981    0.0000 C   0  0  0  0  0  0  0  0  0  0  0  0
   -2.7990    1.8481    0.0000 O   0  0  0  0  0  0  0  0  0  0  0  0
   -2.2500    3.8971    0.0000 C   0  0  0  0  0  0  0  0  0  0  0  0
   -3.0000    5.1962    0.0000 F   0  0  0  0  0  0  0  0  0  0  0  0
   -3.5490    3.1471    0.0000 F   0  0  0  0  0  0  0  0  0  0  0  0
   -1.5426    4.4302    0.0000 F   0  0  0  0  0  0  0  0  0  0  0  0
   -0.2010    3.3481    0.0000 C   0  0  0  0  0  0  0  0  0  0  0  0
    1.0981    4.0981    0.0000 F   0  0  0  0  0  0  0  0  0  0  0  0
   -0.5470    4.1634    0.0000 F   0  0  0  0  0  0  0  0  0  0  0  0
    0.8411    2.2691    0.0000 F   0  0  0  0  0  0  0  0  0  0  0  0
    0.7500    1.2990    0.0000 C   0  0  0  0  0  0  0  0  0  0  0  0
  1  2  1  0
  2  3  2  0
  3  4  1  0
  4  5  2  0
  5  6  1  0
  5  7  1  0
  7  8  1  0
  8  9  1  0
  8 10  1  0
 10 11  1  0
 10 12  1  0
 10 13  1  0
  8 14  1  0
 14 15  1  0
 14 16  1  0
 14 17  1  0
  7 18  2  0
 18  2  1  0
M  END
$$$$

     RDKit          2D

 17 17  0  0  0  0  0  0  0  0999 V2000
    3.5260    1.2990    0.0000 O   0  0  0  0  0  0  0  0  0  0  0  0
    2.7760    0.0000    0.0000 C   0  0  0  0  0  0  0  0  0  0  0  0
    1.2760    0.0000    0.0000 N   0  0  0  0  0  0  0  0  0  0  0  0
    0.3943    1.2135    0.0000 C   0  0  0  0  0  0  0  0  0  0  0  0
   -1.0323    0.7500    0.0000 C   0  0  0  0  0  0  0  0  0  0  0  0
   -1.0323   -0.7500    0.0000 C   0  0  0  0  0  0  0  0  0  0  0  0
    0.3943   -1.2135    0.0000 C   0  0  0  0  0  0  0  0  0  0  0  0
    3.5260   -1.2990    0.0000 C   0  0  0  0  0  0  0  0  0  0  0  0
    4.8250   -0.5490    0.0000 F   0  0  0  0  0  0  0  0  0  0  0  0
    2.2269   -2.0490    0.0000 F   0  0  0  0  0  0  0  0  0  0  0  0
    4.2760   -2.5981    0.0000 C   0  0  0  0  0  0  0  0  0  0  0  0
    2.9769   -3.3481    0.0000 F   0  0  0  0  0  0  0  0  0  0  0  0
    5.5750   -1.8481    0.0000 F   0  0  0  0  0  0  0  0  0  0  0  0
    5.0260   -3.8971    0.0000 C   0  0  0  0  0  0  0  0  0  0  0  0
    5.7760   -5.1962    0.0000 F   0  0  0  0  0  0  0  0  0  0  0  0
    6.3250   -3.1471    0.0000 F   0  0  0  0  0  0  0  0  0  0  0  0
    3.7269   -4.6471    0.0000 F   0  0  0  0  0  0  0  0  0  0  0  0
  1  2  2  0
  2  3  1  0
  3  4  1  0
  4  5  1  0
  5  6  1  0
  6  7  1  0
  2  8  1  0
  8  9  1  0
  8 10  1  0
  8 11  1  0
 11 12  1  0
 11 13  1  0
 11 14  1  0
 14 15  1  0
 14 16  1  0
 14 17  1  0
  7  3  1  0
M  END
$$$$

     RDKit          2D

 19 20  0  0  0  0  0  0  0  0999 V2000
    3.0000    0.0000    0.0000 C   0  0  0  0  0  0  0  0  0  0  0  0
    1.5000    0.0000    0.0000 C   0  0  0  0  0  0  0  0  0  0  0  0
    0.7500   -1.2990    0.0000 C   0  0  0  0  0  0  0  0  0  0  0  0
   -0.7500   -1.2990    0.0000 C   0  0  0  0  0  0  0  0  0  0  0  0
   -1.5000    0.0000    0.0000 C   0  0  0  0  0  0  0  0  0  0  0  0
   -0.7500    1.2990    0.0000 C   0  0  0  0  0  0  0  0  0  0  0  0
    0.7500    1.2990    0.0000 C   0  0  0  0  0  0  0  0  0  0  0  0
   -1.7537    2.4138    0.0000 C   0  0  0  0  0  0  0  0  0  0  0  0
   -0.5402    3.2954    0.0000 C   0  0  0  0  0  0  0  0  0  0  0  0
    0.6734    4.1771    0.0000 F   0  0  0  0  0  0  0  0  0  0  0  0
    0.3415    2.0819    0.0000 F   0  0  0  0  0  0  0  0  0  0  0  0
   -0.9266    3.9927    0.0000 F   0  0  0  0  0  0  0  0  0  0  0  0
   -2.5037    3.7128    0.0000 C   0  0  0  0  0  0  0  0  0  0  0  0
   -3.2537    5.0118    0.0000 F   0  0  0  0  0  0  0  0  0  0  0  0
   -3.8027    2.9628    0.0000 F   0  0  0  0  0  0  0  0  0  0  0  0
   -1.8671    4.1926    0.0000 F   0  0  0  0  0  0  0  0  0  0  0  0
   -3.1240    1.8037    0.0000 O   0  0  0  0  0  0  0  0  0  0  0  0
   -2.9672    0.3119    0.0000 I   0  0  0  0  0  0  0  0  0  0  0  0
   -4.0819   -0.6918    0.0000 Br  0  0  0  0  0  0  0  0  0  0  0  0
  1  2  1  0
  2  3  2  0
  3  4  1  0
  4  5  2  0
  5  6  1  0
  6  7  2  0
  6  8  1  0
  8  9  1  0
  9 10  1  0
  9 11  1  0
  9 12  1  0
  8 13  1  0
 13 14  1  0
 13 15  1  0
 13 16  1  0
  8 17  1  0
 17 18  1  0
 18 19  1  0
  7  2  1  0
 18  5  1  0
M  END
$$$$

     RDKit          2D

 19 19  0  0  0  0  0  0  0  0999 V2000
    3.0000    0.0000    0.0000 C   0  0  0  0  0  0  0  0  0  0  0  0
    1.5000    0.0000    0.0000 C   0  0  0  0  0  0  0  0  0  0  0  0
    0.7500   -1.2990    0.0000 C   0  0  0  0  0  0  0  0  0  0  0  0
   -0.7500   -1.2990    0.0000 C   0  0  0  0  0  0  0  0  0  0  0  0
   -1.5000   -2.5981    0.0000 Br  0  0  0  0  0  0  0  0  0  0  0  0
   -1.5000    0.0000    0.0000 C   0  0  0  0  0  0  0  0  0  0  0  0
   -3.0000    0.0000    0.0000 N   0  0  0  0  0  0  0  0  0  0  0  0
   -0.7500    1.2990    0.0000 C   0  0  0  0  0  0  0  0  0  0  0  0
   -1.5000    2.5981    0.0000 C   0  0  0  0  0  0  0  0  0  0  0  0
   -2.7990    1.8481    0.0000 O   0  0  0  0  0  0  0  0  0  0  0  0
   -2.2500    3.8971    0.0000 C   0  0  0  0  0  0  0  0  0  0  0  0
   -3.0000    5.1962    0.0000 F   0  0  0  0  0  0  0  0  0  0  0  0
   -3.5490    3.1471    0.0000 F   0  0  0  0  0  0  0  0  0  0  0  0
   -1.5426    4.4302    0.0000 F   0  0  0  0  0  0  0  0  0  0  0  0
   -0.2010    3.3481    0.0000 C   0  0  0  0  0  0  0  0  0  0  0  0
    1.0981    4.0981    0.0000 F   0  0  0  0  0  0  0  0  0  0  0  0
    0.8411    2.2691    0.0000 F   0  0  0  0  0  0  0  0  0  0  0  0
   -0.5470    4.1634    0.0000 F   0  0  0  0  0  0  0  0  0  0  0  0
    0.7500    1.2990    0.0000 C   0  0  0  0  0  0  0  0  0  0  0  0
  1  2  1  0
  2  3  2  0
  3  4  1  0
  4  5  1  0
  4  6  2  0
  6  7  1  0
  6  8  1  0
  8  9  1  0
  9 10  1  0
  9 11  1  0
 11 12  1  0
 11 13  1  0
 11 14  1  0
  9 15  1  0
 15 16  1  0
 15 17  1  0
 15 18  1  0
  8 19  2  0
 19  2  1  0
M  END
$$$$

     RDKit          2D

 37 38  0  0  0  0  0  0  0  0999 V2000
    2.5981   -1.0607    0.0000 C   0  0  0  0  0  0  0  0  0  0  0  0
    1.2990   -1.8107    0.0000 N   0  0  0  0  0  0  0  0  0  0  0  0
    1.2990   -3.3107    0.0000 C   0  0  0  0  0  0  0  0  0  0  0  0
    2.5981   -4.0607    0.0000 C   0  0  0  0  0  0  0  0  0  0  0  0
    2.5981   -5.5607    0.0000 C   0  0  0  0  0  0  0  0  0  0  0  0
    2.5981   -7.0607    0.0000 F   0  0  0  0  0  0  0  0  0  0  0  0
    4.0981   -5.5607    0.0000 F   0  0  0  0  0  0  0  0  0  0  0  0
    1.0981   -5.5607    0.0000 F   0  0  0  0  0  0  0  0  0  0  0  0
    3.8971   -3.3107    0.0000 C   0  0  0  0  0  0  0  0  0  0  0  0
    5.1962   -2.5607    0.0000 F   0  0  0  0  0  0  0  0  0  0  0  0
    4.6471   -4.6097    0.0000 F   0  0  0  0  0  0  0  0  0  0  0  0
    3.1471   -2.0116    0.0000 F   0  0  0  0  0  0  0  0  0  0  0  0
   -0.0000   -4.0607    0.0000 S   0  0  0  0  0  0  0  0  0  0  0  0
   -1.2990   -3.3107    0.0000 C   0  0  0  0  0  0  0  0  0  0  0  0
   -2.5981   -4.0607    0.0000 C   0  0  0  0  0  0  0  0  0  0  0  0
   -3.8971   -3.3107    0.0000 C   0  0  0  0  0  0  0  0  0  0  0  0
   -5.1962   -2.5607    0.0000 F   0  0  0  0  0  0  0  0  0  0  0  0
   -4.6471   -4.6097    0.0000 F   0  0  0  0  0  0  0  0  0  0  0  0
   -3.1471   -2.0116    0.0000 F   0  0  0  0  0  0  0  0  0  0  0  0
   -2.5981   -5.5607    0.0000 C   0  0  0  0  0  0  0  0  0  0  0  0
   -2.5981   -7.0607    0.0000 F   0  0  0  0  0  0  0  0  0  0  0  0
   -4.0981   -5.5607    0.0000 F   0  0  0  0  0  0  0  0  0  0  0  0
   -1.0981   -5.5607    0.0000 F   0  0  0  0  0  0  0  0  0  0  0  0
   -1.2990   -1.8107    0.0000 S   0  0  0  0  0  0  0  0  0  0  0  0
   -0.0000   -1.0607    0.0000 C   0  0  0  0  0  0  0  0  0  0  0  0
    1.0607    0.0000    0.0000 S   0  0  0  0  0  0  0  0  0  0  0  0
    0.0000    1.0607    0.0000 C   0  0  0  0  0  0  0  0  0  0  0  0
    0.0000    2.5607    0.0000 C   0  0  0  0  0  0  0  0  0  0  0  0
    1.2990    3.3107    0.0000 C   0  0  0  0  0  0  0  0  0  0  0  0
    2.5981    4.0607    0.0000 F   0  0  0  0  0  0  0  0  0  0  0  0
    0.5490    4.6097    0.0000 F   0  0  0  0  0  0  0  0  0  0  0  0
    2.0490    2.0116    0.0000 F   0  0  0  0  0  0  0  0  0  0  0  0
   -1.2990    3.3107    0.0000 C   0  0  0  0  0  0  0  0  0  0  0  0
   -2.5981    4.0607    0.0000 F   0  0  0  0  0  0  0  0  0  0  0  0
   -0.5490    4.6097    0.0000 F   0  0  0  0  0  0  0  0  0  0  0  0
   -2.0490    2.0116    0.0000 F   0  0  0  0  0  0  0  0  0  0  0  0
   -1.0607    0.0000    0.0000 S   0  0  0  0  0  0  0  0  0  0  0  0
  1  2  1  0
  2  3  1  0
  3  4  2  0
  4  5  1  0
  5  6  1  0
  5  7  1  0
  5  8  1  0
  4  9  1  0
  9 10  1  0
  9 11  1  0
  9 12  1  0
  3 13  1  0
 13 14  1  0
 14 15  2  0
 15 16  1  0
 16 17  1  0
 16 18  1  0
 16 19  1  0
 15 20  1  0
 20 21  1  0
 20 22  1  0
 20 23  1  0
 14 24  1  0
 24 25  1  0
 25 26  1  0
 26 27  1  0
 27 28  2  0
 28 29  1  0
 29 30  1  0
 29 31  1  0
 29 32  1  0
 28 33  1  0
 33 34  1  0
 33 35  1  0
 33 36  1  0
 27 37  1  0
 25  2  1  0
 37 25  1  0
M  END
$$$$

     RDKit          2D

 31 30  0  0  0  0  0  0  0  0999 V2000
    2.5981    1.5000    0.0000 F   0  0  0  0  0  0  0  0  0  0  0  0
    1.2990    0.7500    0.0000 C   0  0  0  0  0  0  0  0  0  0  0  0
    2.0490   -0.5490    0.0000 F   0  0  0  0  0  0  0  0  0  0  0  0
    0.5490    2.0490    0.0000 F   0  0  0  0  0  0  0  0  0  0  0  0
    0.0000    0.0000    0.0000 C   0  0  0  0  0  0  0  0  0  0  0  0
   -0.0000   -1.5000    0.0000 O   0  0  0  0  0  0  0  0  0  0  0  0
   -1.2990   -2.2500    0.0000 P   0  0  0  0  0  0  0  0  0  0  0  0
   -1.2990   -3.7500    0.0000 O   0  0  0  0  0  0  0  0  0  0  0  0
   -0.0000   -4.5000    0.0000 C   0  0  0  0  0  0  0  0  0  0  0  0
   -0.0000   -6.0000    0.0000 C   0  0  0  0  0  0  0  0  0  0  0  0
    0.0000   -7.5000    0.0000 F   0  0  0  0  0  0  0  0  0  0  0  0
    1.5000   -6.0000    0.0000 F   0  0  0  0  0  0  0  0  0  0  0  0
   -1.5000   -6.0000    0.0000 F   0  0  0  0  0  0  0  0  0  0  0  0
    1.2990   -3.7500    0.0000 C   0  0  0  0  0  0  0  0  0  0  0  0
    2.5981   -3.0000    0.0000 F   0  0  0  0  0  0  0  0  0  0  0  0
    2.0490   -5.0490    0.0000 F   0  0  0  0  0  0  0  0  0  0  0  0
    0.5490   -2.4510    0.0000 F   0  0  0  0  0  0  0  0  0  0  0  0
   -2.5981   -1.5000    0.0000 O   0  0  0  0  0  0  0  0  0  0  0  0
   -3.8971   -2.2500    0.0000 C   0  0  0  0  0  0  0  0  0  0  0  0
   -5.1962   -1.5000    0.0000 C   0  0  0  0  0  0  0  0  0  0  0  0
   -6.4952   -0.7500    0.0000 F   0  0  0  0  0  0  0  0  0  0  0  0
   -5.9462   -2.7990    0.0000 F   0  0  0  0  0  0  0  0  0  0  0  0
   -4.4462   -0.2010    0.0000 F   0  0  0  0  0  0  0  0  0  0  0  0
   -3.8971   -3.7500    0.0000 C   0  0  0  0  0  0  0  0  0  0  0  0
   -3.8971   -5.2500    0.0000 F   0  0  0  0  0  0  0  0  0  0  0  0
   -5.3971   -3.7500    0.0000 F   0  0  0  0  0  0  0  0  0  0  0  0
   -2.3971   -3.7500    0.0000 F   0  0  0  0  0  0  0  0  0  0  0  0
   -1.2990    0.7500    0.0000 C   0  0  0  0  0  0  0  0  0  0  0  0
   -2.5981    1.5000    0.0000 F   0  0  0  0  0  0  0  0  0  0  0  0
   -2.0490   -0.5490    0.0000 F   0  0  0  0  0  0  0  0  0  0  0  0
   -0.5490    2.0490    0.0000 F   0  0  0  0  0  0  0  0  0  0  0  0
  1  2  1  0
  2  3  1  0
  2  4  1  0
  2  5  1  0
  5  6  1  0
  6  7  1  0
  7  8  1  0
  8  9  1  0
  9 10  1  0
 10 11  1  0
 10 12  1  0
 10 13  1  0
  9 14  1  0
 14 15  1  0
 14 16  1  0
 14 17  1  0
  7 18  1  0
 18 19  1  0
 19 20  1  0
 20 21  1  0
 20 22  1  0
 20 23  1  0
 19 24  1  0
 24 25  1  0
 24 26  1  0
 24 27  1  0
  5 28  1  0
 28 29  1  0
 28 30  1  0
 28 31  1  0
M  END
$$$$

     RDKit          2D

 20 20  0  0  0  0  0  0  0  0999 V2000
    3.0000   -1.5000    0.0000 C   0  0  0  0  0  0  0  0  0  0  0  0
    3.0000    0.0000    0.0000 C   0  0  0  0  0  0  0  0  0  0  0  0
    3.0000    1.5000    0.0000 C   0  0  0  0  0  0  0  0  0  0  0  0
    4.5000    0.0000    0.0000 C   0  0  0  0  0  0  0  0  0  0  0  0
    1.5000    0.0000    0.0000 C   0  0  0  0  0  0  0  0  0  0  0  0
    0.7500   -1.2990    0.0000 C   0  0  0  0  0  0  0  0  0  0  0  0
   -0.7500   -1.2990    0.0000 C   0  0  0  0  0  0  0  0  0  0  0  0
   -1.5000    0.0000    0.0000 C   0  0  0  0  0  0  0  0  0  0  0  0
   -3.0000    0.0000    0.0000 C   0  0  0  0  0  0  0  0  0  0  0  0
   -3.0000   -1.5000    0.0000 O   0  0  0  0  0  0  0  0  0  0  0  0
   -4.5000    0.0000    0.0000 C   0  0  0  0  0  0  0  0  0  0  0  0
   -6.0000   -0.0000    0.0000 F   0  0  0  0  0  0  0  0  0  0  0  0
   -4.5000   -1.5000    0.0000 F   0  0  0  0  0  0  0  0  0  0  0  0
   -4.6080    0.8791    0.0000 F   0  0  0  0  0  0  0  0  0  0  0  0
   -3.0000    1.5000    0.0000 C   0  0  0  0  0  0  0  0  0  0  0  0
   -3.0000    3.0000    0.0000 F   0  0  0  0  0  0  0  0  0  0  0  0
   -3.8791    1.6080    0.0000 F   0  0  0  0  0  0  0  0  0  0  0  0
   -1.5446    1.8630    0.0000 F   0  0  0  0  0  0  0  0  0  0  0  0
   -0.7500    1.2990    0.0000 C   0  0  0  0  0  0  0  0  0  0  0  0
    0.7500    1.2990    0.0000 C   0  0  0  0  0  0  0  0  0  0  0  0
  1  2  1  0
  2  3  1  0
  2  4  1  0
  2  5  1  0
  5  6  2  0
  6  7  1  0
  7  8  2  0
  8  9  1  0
  9 10  1  0
  9 11  1  0
 11 12  1  0
 11 13  1  0
 11 14  1  0
  9 15  1  0
 15 16  1  0
 15 17  1  0
 15 18  1  0
  8 19  1  0
 19 20  2  0
 20  5  1  0
M  END
$$$$

     RDKit          2D

 28 28  0  0  0  0  0  0  0  0999 V2000
    3.0000    0.0000    0.0000 C   0  0  0  0  0  0  0  0  0  0  0  0
    1.5000    0.0000    0.0000 C   0  0  0  0  0  0  0  0  0  0  0  0
    0.7500   -1.2990    0.0000 C   0  0  0  0  0  0  0  0  0  0  0  0
   -0.7500   -1.2990    0.0000 C   0  0  0  0  0  0  0  0  0  0  0  0
   -1.5000   -2.5981    0.0000 C   0  0  0  0  0  0  0  0  0  0  0  0
   -0.2010   -3.3481    0.0000 O   0  0  0  0  0  0  0  0  0  0  0  0
   -2.2500   -3.8971    0.0000 C   0  0  0  0  0  0  0  0  0  0  0  0
   -3.0000   -5.1962    0.0000 F   0  0  0  0  0  0  0  0  0  0  0  0
   -0.9510   -4.6471    0.0000 F   0  0  0  0  0  0  0  0  0  0  0  0
   -3.0653   -3.5511    0.0000 F   0  0  0  0  0  0  0  0  0  0  0  0
   -2.7990   -1.8481    0.0000 C   0  0  0  0  0  0  0  0  0  0  0  0
   -4.0981   -1.0981    0.0000 F   0  0  0  0  0  0  0  0  0  0  0  0
   -3.3321   -2.5554    0.0000 F   0  0  0  0  0  0  0  0  0  0  0  0
   -2.5549   -0.9966    0.0000 F   0  0  0  0  0  0  0  0  0  0  0  0
   -1.5000    0.0000    0.0000 C   0  0  0  0  0  0  0  0  0  0  0  0
   -2.3857    0.0000    0.0000 I   0  0  0  0  0  0  0  0  0  0  0  0
   -0.7500    1.2990    0.0000 C   0  0  0  0  0  0  0  0  0  0  0  0
   -1.5000    2.5981    0.0000 C   0  0  0  0  0  0  0  0  0  0  0  0
   -2.7990    1.8481    0.0000 O   0  0  0  0  0  0  0  0  0  0  0  0
   -2.2500    3.8971    0.0000 C   0  0  0  0  0  0  0  0  0  0  0  0
   -3.0000    5.1962    0.0000 F   0  0  0  0  0  0  0  0  0  0  0  0
   -3.5490    3.1471    0.0000 F   0  0  0  0  0  0  0  0  0  0  0  0
   -1.5426    4.4302    0.0000 F   0  0  0  0  0  0  0  0  0  0  0  0
   -0.2010    3.3481    0.0000 C   0  0  0  0  0  0  0  0  0  0  0  0
    1.0981    4.0981    0.0000 F   0  0  0  0  0  0  0  0  0  0  0  0
   -0.5470    4.1634    0.0000 F   0  0  0  0  0  0  0  0  0  0  0  0
    0.8411    2.2691    0.0000 F   0  0  0  0  0  0  0  0  0  0  0  0
    0.7500    1.2990    0.0000 C   0  0  0  0  0  0  0  0  0  0  0  0
  1  2  1  0
  2  3  2  0
  3  4  1  0
  4  5  1  0
  5  6  1  0
  5  7  1  0
  7  8  1  0
  7  9  1  0
  7 10  1  0
  5 11  1  0
 11 12  1  0
 11 13  1  0
 11 14  1  0
  4 15  2  0
 15 16  1  0
 15 17  1  0
 17 18  1  0
 18 19  1  0
 18 20  1  0
 20 21  1  0
 20 22  1  0
 20 23  1  0
 18 24  1  0
 24 25  1  0
 24 26  1  0
 24 27  1  0
 17 28  2  0
 28  2  1  0
M  END
$$$$

     RDKit          2D

 41 42  0  0  0  0  0  0  0  0999 V2000
    3.5054    2.0074    0.0000 F   0  0  0  0  0  0  0  0  0  0  0  0
    2.3907    1.0037    0.0000 C   0  0  0  0  0  0  0  0  0  0  0  0
    1.3870    2.1184    0.0000 F   0  0  0  0  0  0  0  0  0  0  0  0
    2.9923    0.4807    0.0000 F   0  0  0  0  0  0  0  0  0  0  0  0
    1.2760    0.0000    0.0000 C   0  0  0  0  0  0  0  0  0  0  0  0
    2.3907   -1.0037    0.0000 C   0  0  0  0  0  0  0  0  0  0  0  0
    3.6194   -1.8640    0.0000 F   0  0  0  0  0  0  0  0  0  0  0  0
    2.9923   -0.4807    0.0000 F   0  0  0  0  0  0  0  0  0  0  0  0
    1.6866   -2.3282    0.0000 F   0  0  0  0  0  0  0  0  0  0  0  0
    0.3943    1.2135    0.0000 O   0  0  0  0  0  0  0  0  0  0  0  0
   -1.0323    0.7500    0.0000 S   0  0  0  0  0  0  0  0  0  0  0  0
   -1.0323   -0.7500    0.0000 O   0  0  0  0  0  0  0  0  0  0  0  0
    0.3943   -1.2135    0.0000 C   0  0  0  0  0  0  0  0  0  0  0  0
    1.6933   -1.9635    0.0000 C   0  0  0  0  0  0  0  0  0  0  0  0
    2.8913   -2.8663    0.0000 F   0  0  0  0  0  0  0  0  0  0  0  0
    1.1073   -3.3443    0.0000 F   0  0  0  0  0  0  0  0  0  0  0  0
    2.7354   -0.8846    0.0000 F   0  0  0  0  0  0  0  0  0  0  0  0
   -0.2158   -2.5838    0.0000 C   0  0  0  0  0  0  0  0  0  0  0  0
   -0.8259   -3.9542    0.0000 F   0  0  0  0  0  0  0  0  0  0  0  0
    1.0699   -3.3564    0.0000 F   0  0  0  0  0  0  0  0  0  0  0  0
   -1.5861   -1.9737    0.0000 F   0  0  0  0  0  0  0  0  0  0  0  0
   -2.4589    0.2865    0.0000 O   0  0  0  0  0  0  0  0  0  0  0  0
   -3.3405    1.5000    0.0000 C   0  0  0  0  0  0  0  0  0  0  0  0
   -4.4553    0.4963    0.0000 C   0  0  0  0  0  0  0  0  0  0  0  0
   -5.5700   -0.5074    0.0000 F   0  0  0  0  0  0  0  0  0  0  0  0
   -5.5874    1.4804    0.0000 F   0  0  0  0  0  0  0  0  0  0  0  0
   -3.4516   -0.6184    0.0000 F   0  0  0  0  0  0  0  0  0  0  0  0
   -4.4553    2.5037    0.0000 C   0  0  0  0  0  0  0  0  0  0  0  0
   -5.6840    3.3640    0.0000 F   0  0  0  0  0  0  0  0  0  0  0  0
   -3.7511    3.8282    0.0000 F   0  0  0  0  0  0  0  0  0  0  0  0
   -5.5874    1.5196    0.0000 F   0  0  0  0  0  0  0  0  0  0  0  0
   -2.4589    2.7135    0.0000 C   0  0  0  0  0  0  0  0  0  0  0  0
   -3.7579    3.4635    0.0000 C   0  0  0  0  0  0  0  0  0  0  0  0
   -4.9558    4.3663    0.0000 F   0  0  0  0  0  0  0  0  0  0  0  0
   -3.1718    4.8443    0.0000 F   0  0  0  0  0  0  0  0  0  0  0  0
   -4.8000    2.3846    0.0000 F   0  0  0  0  0  0  0  0  0  0  0  0
   -1.8488    4.0838    0.0000 C   0  0  0  0  0  0  0  0  0  0  0  0
   -1.2387    5.4542    0.0000 F   0  0  0  0  0  0  0  0  0  0  0  0
   -3.1345    4.8564    0.0000 F   0  0  0  0  0  0  0  0  0  0  0  0
   -0.4784    3.4737    0.0000 F   0  0  0  0  0  0  0  0  0  0  0  0
   -1.0323    2.2500    0.0000 O   0  0  0  0  0  0  0  0  0  0  0  0
  1  2  1  0
  2  3  1  0
  2  4  1  0
  2  5  1  0
  5  6  1  0
  6  7  1  0
  6  8  1  0
  6  9  1  0
  5 10  1  0
 10 11  1  0
 11 12  1  0
 12 13  1  0
 13 14  1  0
 14 15  1  0
 14 16  1  0
 14 17  1  0
 13 18  1  0
 18 19  1  0
 18 20  1  0
 18 21  1  0
 11 22  1  0
 22 23  1  0
 23 24  1  0
 24 25  1  0
 24 26  1  0
 24 27  1  0
 23 28  1  0
 28 29  1  0
 28 30  1  0
 28 31  1  0
 23 32  1  0
 32 33  1  0
 33 34  1  0
 33 35  1  0
 33 36  1  0
 32 37  1  0
 37 38  1  0
 37 39  1  0
 37 40  1  0
 32 41  1  0
 13  5  1  0
 41 11  1  0
M  END
$$$$

     RDKit          2D

 33 34  0  0  0  0  0  0  0  0999 V2000
    3.5377   -3.4056    0.0000 C   0  0  0  0  0  0  0  0  0  0  0  0
    2.3886   -2.4414    0.0000 C   0  0  0  0  0  0  0  0  0  0  0  0
    2.6491   -0.9642    0.0000 N   0  0  0  0  0  0  0  0  0  0  0  0
    4.0586   -0.4512    0.0000 C   0  0  0  0  0  0  0  0  0  0  0  0
    5.2077   -1.4153    0.0000 C   0  0  0  0  0  0  0  0  0  0  0  0
    1.5000    0.0000    0.0000 C   0  0  0  0  0  0  0  0  0  0  0  0
    2.6491    0.9642    0.0000 C   0  0  0  0  0  0  0  0  0  0  0  0
    4.0586    0.4512    0.0000 F   0  0  0  0  0  0  0  0  0  0  0  0
    2.3886    2.4414    0.0000 C   0  0  0  0  0  0  0  0  0  0  0  0
    2.1281    3.9186    0.0000 F   0  0  0  0  0  0  0  0  0  0  0  0
    0.8923    2.5461    0.0000 F   0  0  0  0  0  0  0  0  0  0  0  0
    3.8658    2.7019    0.0000 F   0  0  0  0  0  0  0  0  0  0  0  0
    0.7500   -1.2990    0.0000 O   0  0  0  0  0  0  0  0  0  0  0  0
   -0.7500   -1.2990    0.0000 C   0  0  0  0  0  0  0  0  0  0  0  0
   -1.5000    0.0000    0.0000 C   0  0  0  0  0  0  0  0  0  0  0  0
   -0.7500    1.2990    0.0000 C   0  0  0  0  0  0  0  0  0  0  0  0
    0.7500    1.2990    0.0000 O   0  0  0  0  0  0  0  0  0  0  0  0
   -2.2500    1.2990    0.0000 C   0  0  0  0  0  0  0  0  0  0  0  0
   -3.7500    1.2990    0.0000 O   0  0  0  0  0  0  0  0  0  0  0  0
   -4.5000   -0.0000    0.0000 C   0  0  0  0  0  0  0  0  0  0  0  0
   -5.6491   -0.9642    0.0000 C   0  0  0  0  0  0  0  0  0  0  0  0
   -5.3886   -2.4414    0.0000 F   0  0  0  0  0  0  0  0  0  0  0  0
   -7.0586   -0.4512    0.0000 C   0  0  0  0  0  0  0  0  0  0  0  0
   -8.4681    0.0619    0.0000 F   0  0  0  0  0  0  0  0  0  0  0  0
   -7.5716   -1.8607    0.0000 F   0  0  0  0  0  0  0  0  0  0  0  0
   -7.1696    0.3382    0.0000 F   0  0  0  0  0  0  0  0  0  0  0  0
   -5.6491    0.9642    0.0000 N   0  0  0  0  0  0  0  0  0  0  0  0
   -5.3886    2.4414    0.0000 C   0  0  0  0  0  0  0  0  0  0  0  0
   -6.5377    3.4056    0.0000 C   0  0  0  0  0  0  0  0  0  0  0  0
   -7.0586    0.4512    0.0000 C   0  0  0  0  0  0  0  0  0  0  0  0
   -8.2077    1.4153    0.0000 C   0  0  0  0  0  0  0  0  0  0  0  0
   -3.7500   -1.2990    0.0000 O   0  0  0  0  0  0  0  0  0  0  0  0
   -2.2500   -1.2990    0.0000 C   0  0  0  0  0  0  0  0  0  0  0  0
  1  2  1  0
  2  3  1  0
  3  4  1  0
  4  5  1  0
  3  6  1  0
  6  7  1  0
  7  8  1  0
  7  9  1  0
  9 10  1  0
  9 11  1  0
  9 12  1  0
  6 13  1  0
 13 14  1  0
 14 15  1  0
 15 16  1  0
 16 17  1  0
 15 18  1  0
 18 19  1  0
 19 20  1  0
 20 21  1  0
 21 22  1  0
 21 23  1  0
 23 24  1  0
 23 25  1  0
 23 26  1  0
 20 27  1  0
 27 28  1  0
 28 29  1  0
 27 30  1  0
 30 31  1  0
 20 32  1  0
 32 33  1  0
 17  6  1  0
 33 15  1  0
M  END
$$$$

     RDKit          2D

 30 28  0  0  0  0  0  0  0  0999 V2000
    1.0000   -1.5000    0.0000 O   0  0  0  0  0  0  0  0  0  0  0  0
    2.5000   -1.5000    0.0000 S   0  0  0  0  0  0  0  0  0  0  0  0
    3.2912   -1.5972    0.0000 O   0  0  0  0  0  0  0  0  0  0  0  0
    2.5000   -3.0000    0.0000 O   0  0  0  0  0  0  0  0  0  0  0  0
    2.5000    0.0000    0.0000 C   0  0  0  0  0  0  0  0  0  0  0  0
    1.0000    0.0000    0.0000 F   0  0  0  0  0  0  0  0  0  0  0  0
    2.5000    1.5000    0.0000 F   0  0  0  0  0  0  0  0  0  0  0  0
    4.0000    0.0000    0.0000 C   0  0  0  0  0  0  0  0  0  0  0  0
    4.0000    1.5000    0.0000 F   0  0  0  0  0  0  0  0  0  0  0  0
    4.1080   -0.8791    0.0000 F   0  0  0  0  0  0  0  0  0  0  0  0
    5.5000    0.0000    0.0000 C   0  0  0  0  0  0  0  0  0  0  0  0
    5.5000   -1.5000    0.0000 F   0  0  0  0  0  0  0  0  0  0  0  0
    5.5000    1.5000    0.0000 F   0  0  0  0  0  0  0  0  0  0  0  0
    7.0000    0.0000    0.0000 C   0  0  0  0  0  0  0  0  0  0  0  0
    7.0000    1.5000    0.0000 F   0  0  0  0  0  0  0  0  0  0  0  0
    7.0000   -1.5000    0.0000 F   0  0  0  0  0  0  0  0  0  0  0  0
    8.5000    0.0000    0.0000 C   0  0  0  0  0  0  0  0  0  0  0  0
    8.5000    1.5000    0.0000 F   0  0  0  0  0  0  0  0  0  0  0  0
    8.5000   -1.5000    0.0000 F   0  0  0  0  0  0  0  0  0  0  0  0
   10.0000    0.0000    0.0000 C   0  0  0  0  0  0  0  0  0  0  0  0
   10.0000   -1.5000    0.0000 F   0  0  0  0  0  0  0  0  0  0  0  0
   10.0000    1.5000    0.0000 F   0  0  0  0  0  0  0  0  0  0  0  0
   11.5000    0.0000    0.0000 C   0  0  0  0  0  0  0  0  0  0  0  0
   11.5000    1.5000    0.0000 F   0  0  0  0  0  0  0  0  0  0  0  0
   11.5000   -1.5000    0.0000 F   0  0  0  0  0  0  0  0  0  0  0  0
   13.0000    0.0000    0.0000 C   0  0  0  0  0  0  0  0  0  0  0  0
   14.5000    0.0000    0.0000 F   0  0  0  0  0  0  0  0  0  0  0  0
   13.0000   -1.5000    0.0000 F   0  0  0  0  0  0  0  0  0  0  0  0
   13.0000    1.5000    0.0000 F   0  0  0  0  0  0  0  0  0  0  0  0
    0.0000    0.0000    0.0000 Li  0  0  0  0  0 15  0  0  0  0  0  0
  1  2  2  0
  2  3  2  0
  2  4  1  0
  2  5  1  0
  5  6  1  0
  5  7  1  0
  5  8  1  0
  8  9  1  0
  8 10  1  0
  8 11  1  0
 11 12  1  0
 11 13  1  0
 11 14  1  0
 14 15  1  0
 14 16  1  0
 14 17  1  0
 17 18  1  0
 17 19  1  0
 17 20  1  0
 20 21  1  0
 20 22  1  0
 20 23  1  0
 23 24  1  0
 23 25  1  0
 23 26  1  0
 26 27  1  0
 26 28  1  0
 26 29  1  0
M  CHG  2   4  -1  30   1
M  END
$$$$

     RDKit          2D

 20 20  0  0  0  0  0  0  0  0999 V2000
    3.7500    1.2990    0.0000 O   0  0  0  0  0  0  0  0  0  0  0  0
    3.0000    0.0000    0.0000 C   0  0  0  0  0  0  0  0  0  0  0  0
    3.7500   -1.2990    0.0000 C   0  0  0  0  0  0  0  0  0  0  0  0
    3.0000   -2.5981    0.0000 O   0  0  0  0  0  0  0  0  0  0  0  0
    5.2500   -1.2990    0.0000 C   0  0  0  0  0  0  0  0  0  0  0  0
    5.2500   -2.7990    0.0000 F   0  0  0  0  0  0  0  0  0  0  0  0
    5.2500    0.2010    0.0000 F   0  0  0  0  0  0  0  0  0  0  0  0
    6.7500   -1.2990    0.0000 C   0  0  0  0  0  0  0  0  0  0  0  0
    6.7500    0.2010    0.0000 F   0  0  0  0  0  0  0  0  0  0  0  0
    6.7500   -2.7990    0.0000 F   0  0  0  0  0  0  0  0  0  0  0  0
    8.2500   -1.2990    0.0000 C   0  0  0  0  0  0  0  0  0  0  0  0
    9.7500   -1.2990    0.0000 F   0  0  0  0  0  0  0  0  0  0  0  0
    8.2500   -2.7990    0.0000 F   0  0  0  0  0  0  0  0  0  0  0  0
    8.2500    0.2010    0.0000 F   0  0  0  0  0  0  0  0  0  0  0  0
    1.5000    0.0000    0.0000 C   0  0  0  0  0  0  0  0  0  0  0  0
    0.7500   -1.2990    0.0000 C   0  0  0  0  0  0  0  0  0  0  0  0
   -0.7500   -1.2990    0.0000 C   0  0  0  0  0  0  0  0  0  0  0  0
   -1.5000    0.0000    0.0000 C   0  0  0  0  0  0  0  0  0  0  0  0
   -0.7500    1.2990    0.0000 C   0  0  0  0  0  0  0  0  0  0  0  0
    0.7500    1.2990    0.0000 C   0  0  0  0  0  0  0  0  0  0  0  0
  1  2  2  0
  2  3  1  0
  3  4  2  0
  3  5  1  0
  5  6  1  0
  5  7  1  0
  5  8  1  0
  8  9  1  0
  8 10  1  0
  8 11  1  0
 11 12  1  0
 11 13  1  0
 11 14  1  0
  2 15  1  0
 15 16  2  0
 16 17  1  0
 17 18  2  0
 18 19  1  0
 19 20  2  0
 20 15  1  0
M  END
$$$$

     RDKit          2D

 66 66  0  0  0  0  0  0  0  0999 V2000
   13.5000    0.0000    0.0000 F   0  0  0  0  0  0  0  0  0  0  0  0
   12.7500   -1.2990    0.0000 C   0  0  0  0  0  0  0  0  0  0  0  0
   13.5000   -2.5981    0.0000 F   0  0  0  0  0  0  0  0  0  0  0  0
   11.2500   -1.2990    0.0000 C   0  0  0  0  0  0  0  0  0  0  0  0
   11.2500    0.2010    0.0000 F   0  0  0  0  0  0  0  0  0  0  0  0
   11.2500   -2.7990    0.0000 F   0  0  0  0  0  0  0  0  0  0  0  0
    9.7500   -1.2990    0.0000 C   0  0  0  0  0  0  0  0  0  0  0  0
    9.7500   -2.7990    0.0000 F   0  0  0  0  0  0  0  0  0  0  0  0
    9.7500    0.2010    0.0000 F   0  0  0  0  0  0  0  0  0  0  0  0
    8.2500   -1.2990    0.0000 C   0  0  0  0  0  0  0  0  0  0  0  0
    8.2500   -2.7990    0.0000 F   0  0  0  0  0  0  0  0  0  0  0  0
    8.2500    0.2010    0.0000 F   0  0  0  0  0  0  0  0  0  0  0  0
    6.7500   -1.2990    0.0000 C   0  0  0  0  0  0  0  0  0  0  0  0
    6.7500    0.2010    0.0000 F   0  0  0  0  0  0  0  0  0  0  0  0
    6.7500   -2.7990    0.0000 F   0  0  0  0  0  0  0  0  0  0  0  0
    5.2500   -1.2990    0.0000 C   0  0  0  0  0  0  0  0  0  0  0  0
    5.2500   -2.7990    0.0000 F   0  0  0  0  0  0  0  0  0  0  0  0
    5.2500    0.2010    0.0000 F   0  0  0  0  0  0  0  0  0  0  0  0
    3.7500   -1.2990    0.0000 C   0  0  0  0  0  0  0  0  0  0  0  0
    3.0000    0.0000    0.0000 O   0  0  0  0  0  0  0  0  0  0  0  0
    1.5000    0.0000    0.0000 C   0  0  0  0  0  0  0  0  0  0  0  0
    0.7500   -1.2990    0.0000 N   0  0  0  0  0  0  0  0  0  0  0  0
   -0.7500   -1.2990    0.0000 C   0  0  0  0  0  0  0  0  0  0  0  0
   -1.5000   -2.5981    0.0000 O   0  0  0  0  0  0  0  0  0  0  0  0
   -3.0000   -2.5981    0.0000 C   0  0  0  0  0  0  0  0  0  0  0  0
   -3.7500   -3.8971    0.0000 C   0  0  0  0  0  0  0  0  0  0  0  0
   -5.0490   -3.1471    0.0000 F   0  0  0  0  0  0  0  0  0  0  0  0
   -2.4510   -4.6471    0.0000 F   0  0  0  0  0  0  0  0  0  0  0  0
   -4.5000   -5.1962    0.0000 C   0  0  0  0  0  0  0  0  0  0  0  0
   -3.2010   -5.9462    0.0000 F   0  0  0  0  0  0  0  0  0  0  0  0
   -5.7990   -4.4462    0.0000 F   0  0  0  0  0  0  0  0  0  0  0  0
   -5.2500   -6.4952    0.0000 C   0  0  0  0  0  0  0  0  0  0  0  0
   -6.5490   -5.7452    0.0000 F   0  0  0  0  0  0  0  0  0  0  0  0
   -3.9510   -7.2452    0.0000 F   0  0  0  0  0  0  0  0  0  0  0  0
   -6.0000   -7.7942    0.0000 C   0  0  0  0  0  0  0  0  0  0  0  0
   -7.2990   -7.0442    0.0000 F   0  0  0  0  0  0  0  0  0  0  0  0
   -4.7010   -8.5442    0.0000 F   0  0  0  0  0  0  0  0  0  0  0  0
   -6.7500   -9.0933    0.0000 C   0  0  0  0  0  0  0  0  0  0  0  0
   -5.4510   -9.8433    0.0000 F   0  0  0  0  0  0  0  0  0  0  0  0
   -8.0490   -8.3433    0.0000 F   0  0  0  0  0  0  0  0  0  0  0  0
   -7.5000  -10.3923    0.0000 C   0  0  0  0  0  0  0  0  0  0  0  0
   -6.7500  -11.6913    0.0000 F   0  0  0  0  0  0  0  0  0  0  0  0
   -9.0000  -10.3923    0.0000 F   0  0  0  0  0  0  0  0  0  0  0  0
   -1.5000    0.0000    0.0000 N   0  0  0  0  0  0  0  0  0  0  0  0
   -0.7500    1.2990    0.0000 C   0  0  0  0  0  0  0  0  0  0  0  0
   -1.5000    2.5981    0.0000 O   0  0  0  0  0  0  0  0  0  0  0  0
   -0.7500    3.8971    0.0000 C   0  0  0  0  0  0  0  0  0  0  0  0
   -1.5000    5.1962    0.0000 C   0  0  0  0  0  0  0  0  0  0  0  0
   -0.2010    5.9462    0.0000 F   0  0  0  0  0  0  0  0  0  0  0  0
   -2.7990    4.4462    0.0000 F   0  0  0  0  0  0  0  0  0  0  0  0
   -2.2500    6.4952    0.0000 C   0  0  0  0  0  0  0  0  0  0  0  0
   -3.5490    5.7452    0.0000 F   0  0  0  0  0  0  0  0  0  0  0  0
   -0.9510    7.2452    0.0000 F   0  0  0  0  0  0  0  0  0  0  0  0
   -3.0000    7.7942    0.0000 C   0  0  0  0  0  0  0  0  0  0  0  0
   -1.7010    8.5442    0.0000 F   0  0  0  0  0  0  0  0  0  0  0  0
   -4.2990    7.0442    0.0000 F   0  0  0  0  0  0  0  0  0  0  0  0
   -3.7500    9.0933    0.0000 C   0  0  0  0  0  0  0  0  0  0  0  0
   -2.4510    9.8433    0.0000 F   0  0  0  0  0  0  0  0  0  0  0  0
   -5.0490    8.3433    0.0000 F   0  0  0  0  0  0  0  0  0  0  0  0
   -4.5000   10.3923    0.0000 C   0  0  0  0  0  0  0  0  0  0  0  0
   -5.7990    9.6423    0.0000 F   0  0  0  0  0  0  0  0  0  0  0  0
   -3.2010   11.1423    0.0000 F   0  0  0  0  0  0  0  0  0  0  0  0
   -5.2500   11.6913    0.0000 C   0  0  0  0  0  0  0  0  0  0  0  0
   -6.7500   11.6913    0.0000 F   0  0  0  0  0  0  0  0  0  0  0  0
   -4.5000   12.9904    0.0000 F   0  0  0  0  0  0  0  0  0  0  0  0
    0.7500    1.2990    0.0000 N   0  0  0  0  0  0  0  0  0  0  0  0
  1  2  1  0
  2  3  1  0
  2  4  1  0
  4  5  1  0
  4  6  1  0
  4  7  1  0
  7  8  1  0
  7  9  1  0
  7 10  1  0
 10 11  1  0
 10 12  1  0
 10 13  1  0
 13 14  1  0
 13 15  1  0
 13 16  1  0
 16 17  1  0
 16 18  1  0
 16 19  1  0
 19 20  1  0
 20 21  1  0
 21 22  2  0
 22 23  1  0
 23 24  1  0
 24 25  1  0
 25 26  1  0
 26 27  1  0
 26 28  1  0
 26 29  1  0
 29 30  1  0
 29 31  1  0
 29 32  1  0
 32 33  1  0
 32 34  1  0
 32 35  1  0
 35 36  1  0
 35 37  1  0
 35 38  1  0
 38 39  1  0
 38 40  1  0
 38 41  1  0
 41 42  1  0
 41 43  1  0
 23 44  2  0
 44 45  1  0
 45 46  1  0
 46 47  1  0
 47 48  1  0
 48 49  1  0
 48 50  1  0
 48 51  1  0
 51 52  1  0
 51 53  1  0
 51 54  1  0
 54 55  1  0
 54 56  1  0
 54 57  1  0
 57 58  1  0
 57 59  1  0
 57 60  1  0
 60 61  1  0
 60 62  1  0
 60 63  1  0
 63 64  1  0
 63 65  1  0
 45 66  2  0
 66 21  1  0
M  END
$$$$

     RDKit          2D

 58 54  0  0  0  0  0  0  0  0999 V2000
    0.0000    0.0000    0.0000 C   0  0  0  0  0  0  0  0  0  0  0  0
    1.2990    0.7500    0.0000 C   0  0  0  0  0  0  0  0  0  0  0  0
    2.5981    1.5000    0.0000 C   0  0  0  0  0  0  0  0  0  0  0  0
    2.0490   -0.5490    0.0000 C   0  0  0  0  0  0  0  0  0  0  0  0
    0.5490    2.0490    0.0000 C   0  0  0  0  0  0  0  0  0  0  0  0
   -0.9510    2.0490    0.0000 O   0  0  0  0  0  0  0  0  0  0  0  0
    1.2990    3.3481    0.0000 C   0  0  0  0  0  0  0  0  0  0  0  0
    0.5490    4.6471    0.0000 C   0  0  0  0  0  0  0  0  0  0  0  0
   -0.9510    4.6471    0.0000 O   0  0  0  0  0  0  0  0  0  0  0  0
    1.2990    5.9462    0.0000 C   0  0  0  0  0  0  0  0  0  0  0  0
    0.0000    6.6962    0.0000 F   0  0  0  0  0  0  0  0  0  0  0  0
    2.5981    5.1962    0.0000 F   0  0  0  0  0  0  0  0  0  0  0  0
    2.0490    7.2452    0.0000 C   0  0  0  0  0  0  0  0  0  0  0  0
    3.3481    6.4952    0.0000 F   0  0  0  0  0  0  0  0  0  0  0  0
    0.7500    7.9952    0.0000 F   0  0  0  0  0  0  0  0  0  0  0  0
    2.7990    8.5442    0.0000 C   0  0  0  0  0  0  0  0  0  0  0  0
    3.5490    9.8433    0.0000 F   0  0  0  0  0  0  0  0  0  0  0  0
    1.5000    9.2942    0.0000 F   0  0  0  0  0  0  0  0  0  0  0  0
    4.0981    7.7942    0.0000 F   0  0  0  0  0  0  0  0  0  0  0  0
    6.0490    0.0000    0.0000 C   0  0  0  0  0  0  0  0  0  0  0  0
    7.3481    0.7500    0.0000 C   0  0  0  0  0  0  0  0  0  0  0  0
    8.6471    1.5000    0.0000 C   0  0  0  0  0  0  0  0  0  0  0  0
    8.0981   -0.5490    0.0000 C   0  0  0  0  0  0  0  0  0  0  0  0
    6.5981    2.0490    0.0000 C   0  0  0  0  0  0  0  0  0  0  0  0
    5.0981    2.0490    0.0000 O   0  0  0  0  0  0  0  0  0  0  0  0
    7.3481    3.3481    0.0000 C   0  0  0  0  0  0  0  0  0  0  0  0
    6.5981    4.6471    0.0000 C   0  0  0  0  0  0  0  0  0  0  0  0
    5.0981    4.6471    0.0000 O   0  0  0  0  0  0  0  0  0  0  0  0
    7.3481    5.9462    0.0000 C   0  0  0  0  0  0  0  0  0  0  0  0
    6.0490    6.6962    0.0000 F   0  0  0  0  0  0  0  0  0  0  0  0
    8.6471    5.1962    0.0000 F   0  0  0  0  0  0  0  0  0  0  0  0
    8.0981    7.2452    0.0000 C   0  0  0  0  0  0  0  0  0  0  0  0
    9.3971    6.4952    0.0000 F   0  0  0  0  0  0  0  0  0  0  0  0
    6.7990    7.9952    0.0000 F   0  0  0  0  0  0  0  0  0  0  0  0
    8.8481    8.5442    0.0000 C   0  0  0  0  0  0  0  0  0  0  0  0
    9.5981    9.8433    0.0000 F   0  0  0  0  0  0  0  0  0  0  0  0
    7.5490    9.2942    0.0000 F   0  0  0  0  0  0  0  0  0  0  0  0
   10.1471    7.7942    0.0000 F   0  0  0  0  0  0  0  0  0  0  0  0
    0.0000   11.3923    0.0000 C   0  0  0  0  0  0  0  0  0  0  0  0
    1.2990   12.1423    0.0000 C   0  0  0  0  0  0  0  0  0  0  0  0
    2.5981   12.8923    0.0000 C   0  0  0  0  0  0  0  0  0  0  0  0
    2.0490   10.8433    0.0000 C   0  0  0  0  0  0  0  0  0  0  0  0
    0.5490   13.4413    0.0000 C   0  0  0  0  0  0  0  0  0  0  0  0
   -0.9510   13.4413    0.0000 O   0  0  0  0  0  0  0  0  0  0  0  0
    1.2990   14.7404    0.0000 C   0  0  0  0  0  0  0  0  0  0  0  0
    0.5490   16.0394    0.0000 C   0  0  0  0  0  0  0  0  0  0  0  0
   -0.9510   16.0394    0.0000 O   0  0  0  0  0  0  0  0  0  0  0  0
    1.2990   17.3385    0.0000 C   0  0  0  0  0  0  0  0  0  0  0  0
    0.0000   18.0885    0.0000 F   0  0  0  0  0  0  0  0  0  0  0  0
    2.5981   16.5885    0.0000 F   0  0  0  0  0  0  0  0  0  0  0  0
    2.0490   18.6375    0.0000 C   0  0  0  0  0  0  0  0  0  0  0  0
    3.3481   17.8875    0.0000 F   0  0  0  0  0  0  0  0  0  0  0  0
    0.7500   19.3875    0.0000 F   0  0  0  0  0  0  0  0  0  0  0  0
    2.7990   19.9365    0.0000 C   0  0  0  0  0  0  0  0  0  0  0  0
    3.5490   21.2356    0.0000 F   0  0  0  0  0  0  0  0  0  0  0  0
    1.5000   20.6865    0.0000 F   0  0  0  0  0  0  0  0  0  0  0  0
    4.0981   19.1865    0.0000 F   0  0  0  0  0  0  0  0  0  0  0  0
   11.1471    0.0000    0.0000 Fe  0  0  0  0  0 15  0  0  0  0  0  0
  1  2  1  0
  2  3  1  0
  2  4  1  0
  2  5  1  0
  5  6  2  0
  5  7  1  0
  7  8  1  0
  8  9  2  0
  8 10  1  0
 10 11  1  0
 10 12  1  0
 10 13  1  0
 13 14  1  0
 13 15  1  0
 13 16  1  0
 16 17  1  0
 16 18  1  0
 16 19  1  0
 20 21  1  0
 21 22  1  0
 21 23  1  0
 21 24  1  0
 24 25  2  0
 24 26  1  0
 26 27  1  0
 27 28  2  0
 27 29  1  0
 29 30  1  0
 29 31  1  0
 29 32  1  0
 32 33  1  0
 32 34  1  0
 32 35  1  0
 35 36  1  0
 35 37  1  0
 35 38  1  0
 39 40  1  0
 40 41  1  0
 40 42  1  0
 40 43  1  0
 43 44  2  0
 43 45  1  0
 45 46  1  0
 46 47  2  0
 46 48  1  0
 48 49  1  0
 48 50  1  0
 48 51  1  0
 51 52  1  0
 51 53  1  0
 51 54  1  0
 54 55  1  0
 54 56  1  0
 54 57  1  0
M  END
$$$$

     RDKit          2D

 33 32  0  0  0  0  0  0  0  0999 V2000
    0.3963    1.9479    0.0000 O   0  0  0  0  0  0  0  0  0  0  0  0
    1.2990    0.7500    0.0000 S   0  0  0  0  0  0  0  0  0  0  0  0
    2.0490   -0.5490    0.0000 O   0  0  0  0  0  0  0  0  0  0  0  0
    0.0000    0.0000    0.0000 C   0  0  0  0  0  0  0  0  0  0  0  0
   -1.2990    0.7500    0.0000 S   0  0  0  0  0  0  0  0  0  0  0  0
   -0.5490    2.0490    0.0000 O   0  0  0  0  0  0  0  0  0  0  0  0
   -1.6105    0.0162    0.0000 O   0  0  0  0  0  0  0  0  0  0  0  0
   -2.5981    1.5000    0.0000 C   0  0  0  0  0  0  0  0  0  0  0  0
   -1.8481    2.7990    0.0000 F   0  0  0  0  0  0  0  0  0  0  0  0
   -3.8971    2.2500    0.0000 F   0  0  0  0  0  0  0  0  0  0  0  0
   -3.3481    0.2010    0.0000 C   0  0  0  0  0  0  0  0  0  0  0  0
   -2.6407   -0.3321    0.0000 F   0  0  0  0  0  0  0  0  0  0  0  0
   -4.6471    0.9510    0.0000 F   0  0  0  0  0  0  0  0  0  0  0  0
   -4.0981   -1.0981    0.0000 C   0  0  0  0  0  0  0  0  0  0  0  0
   -5.3971   -0.3481    0.0000 F   0  0  0  0  0  0  0  0  0  0  0  0
   -2.7990   -1.8481    0.0000 F   0  0  0  0  0  0  0  0  0  0  0  0
   -4.8481   -2.3971    0.0000 C   0  0  0  0  0  0  0  0  0  0  0  0
   -5.5981   -3.6962    0.0000 F   0  0  0  0  0  0  0  0  0  0  0  0
   -6.1471   -1.6471    0.0000 F   0  0  0  0  0  0  0  0  0  0  0  0
   -3.5490   -3.1471    0.0000 F   0  0  0  0  0  0  0  0  0  0  0  0
    2.5981    1.5000    0.0000 C   0  0  0  0  0  0  0  0  0  0  0  0
    3.3481    0.2010    0.0000 F   0  0  0  0  0  0  0  0  0  0  0  0
    3.8971    2.2500    0.0000 F   0  0  0  0  0  0  0  0  0  0  0  0
    1.8481    2.7990    0.0000 C   0  0  0  0  0  0  0  0  0  0  0  0
    0.4673    2.2130    0.0000 F   0  0  0  0  0  0  0  0  0  0  0  0
    3.1471    3.5490    0.0000 F   0  0  0  0  0  0  0  0  0  0  0  0
    1.0981    4.0981    0.0000 C   0  0  0  0  0  0  0  0  0  0  0  0
    2.3971    4.8481    0.0000 F   0  0  0  0  0  0  0  0  0  0  0  0
   -0.2010    3.3481    0.0000 F   0  0  0  0  0  0  0  0  0  0  0  0
    0.3481    5.3971    0.0000 C   0  0  0  0  0  0  0  0  0  0  0  0
   -0.4019    6.6962    0.0000 F   0  0  0  0  0  0  0  0  0  0  0  0
    1.6471    6.1471    0.0000 F   0  0  0  0  0  0  0  0  0  0  0  0
   -0.9510    4.6471    0.0000 F   0  0  0  0  0  0  0  0  0  0  0  0
  1  2  2  0
  2  3  2  0
  2  4  1  0
  4  5  1  0
  5  6  2  0
  5  7  2  0
  5  8  1  0
  8  9  1  0
  8 10  1  0
  8 11  1  0
 11 12  1  0
 11 13  1  0
 11 14  1  0
 14 15  1  0
 14 16  1  0
 14 17  1  0
 17 18  1  0
 17 19  1  0
 17 20  1  0
  2 21  1  0
 21 22  1  0
 21 23  1  0
 21 24  1  0
 24 25  1  0
 24 26  1  0
 24 27  1  0
 27 28  1  0
 27 29  1  0
 27 30  1  0
 30 31  1  0
 30 32  1  0
 30 33  1  0
M  END
$$$$

     RDKit          2D

 31 31  0  0  0  0  0  0  0  0999 V2000
    3.0000   -1.5000    0.0000 C   0  0  0  0  0  0  0  0  0  0  0  0
    3.0000    0.0000    0.0000 C   0  0  0  0  0  0  0  0  0  0  0  0
    3.0000    1.5000    0.0000 C   0  0  0  0  0  0  0  0  0  0  0  0
    4.5000    0.0000    0.0000 C   0  0  0  0  0  0  0  0  0  0  0  0
    1.5000    0.0000    0.0000 C   0  0  0  0  0  0  0  0  0  0  0  0
    0.7500   -1.2990    0.0000 C   0  0  0  0  0  0  0  0  0  0  0  0
   -0.7500   -1.2990    0.0000 C   0  0  0  0  0  0  0  0  0  0  0  0
   -1.5000   -2.5981    0.0000 O   0  0  0  0  0  0  0  0  0  0  0  0
   -3.0000   -2.5981    0.0000 S   0  0  0  0  0  0  0  0  0  0  0  0
   -3.0000   -1.0981    0.0000 O   0  0  0  0  0  0  0  0  0  0  0  0
   -2.9028   -3.3893    0.0000 O   0  0  0  0  0  0  0  0  0  0  0  0
   -4.5000   -2.5981    0.0000 C   0  0  0  0  0  0  0  0  0  0  0  0
   -4.5000   -1.0981    0.0000 F   0  0  0  0  0  0  0  0  0  0  0  0
   -6.0000   -2.5981    0.0000 F   0  0  0  0  0  0  0  0  0  0  0  0
   -4.5000   -4.0981    0.0000 C   0  0  0  0  0  0  0  0  0  0  0  0
   -6.0000   -4.0981    0.0000 F   0  0  0  0  0  0  0  0  0  0  0  0
   -3.6209   -4.2060    0.0000 F   0  0  0  0  0  0  0  0  0  0  0  0
   -4.5000   -5.5981    0.0000 C   0  0  0  0  0  0  0  0  0  0  0  0
   -3.0000   -5.5981    0.0000 F   0  0  0  0  0  0  0  0  0  0  0  0
   -6.0000   -5.5981    0.0000 F   0  0  0  0  0  0  0  0  0  0  0  0
   -4.5000   -7.0981    0.0000 C   0  0  0  0  0  0  0  0  0  0  0  0
   -4.5000   -8.5981    0.0000 F   0  0  0  0  0  0  0  0  0  0  0  0
   -3.0000   -7.0981    0.0000 F   0  0  0  0  0  0  0  0  0  0  0  0
   -6.0000   -7.0981    0.0000 F   0  0  0  0  0  0  0  0  0  0  0  0
   -1.5000    0.0000    0.0000 C   0  0  0  0  0  0  0  0  0  0  0  0
   -0.7500    1.2990    0.0000 C   0  0  0  0  0  0  0  0  0  0  0  0
   -1.5000    2.5981    0.0000 C   0  0  0  0  0  0  0  0  0  0  0  0
   -0.2010    3.3481    0.0000 C   0  0  0  0  0  0  0  0  0  0  0  0
   -2.7990    1.8481    0.0000 C   0  0  0  0  0  0  0  0  0  0  0  0
   -2.2500    3.8971    0.0000 C   0  0  0  0  0  0  0  0  0  0  0  0
    0.7500    1.2990    0.0000 C   0  0  0  0  0  0  0  0  0  0  0  0
  1  2  1  0
  2  3  1  0
  2  4  1  0
  2  5  1  0
  5  6  2  0
  6  7  1  0
  7  8  1  0
  8  9  1  0
  9 10  2  0
  9 11  2  0
  9 12  1  0
 12 13  1  0
 12 14  1  0
 12 15  1  0
 15 16  1  0
 15 17  1  0
 15 18  1  0
 18 19  1  0
 18 20  1  0
 18 21  1  0
 21 22  1  0
 21 23  1  0
 21 24  1  0
  7 25  2  0
 25 26  1  0
 26 27  1  0
 27 28  1  0
 27 29  1  0
 27 30  1  0
 26 31  2  0
 31  5  1  0
M  END
$$$$

     RDKit          2D

 34 34  0  0  0  0  0  0  0  0999 V2000
   10.8147   -1.2687    0.0000 F   0  0  0  0  0  0  0  0  0  0  0  0
   10.4264    0.1802    0.0000 C   0  0  0  0  0  0  0  0  0  0  0  0
   11.4871    1.2408    0.0000 F   0  0  0  0  0  0  0  0  0  0  0  0
    8.9775    0.5684    0.0000 C   0  0  0  0  0  0  0  0  0  0  0  0
    8.5893   -0.8805    0.0000 F   0  0  0  0  0  0  0  0  0  0  0  0
    9.3658    2.0173    0.0000 F   0  0  0  0  0  0  0  0  0  0  0  0
    7.5286    0.9566    0.0000 C   0  0  0  0  0  0  0  0  0  0  0  0
    7.1404   -0.4923    0.0000 F   0  0  0  0  0  0  0  0  0  0  0  0
    7.9169    2.4055    0.0000 F   0  0  0  0  0  0  0  0  0  0  0  0
    6.0798    1.3449    0.0000 C   0  0  0  0  0  0  0  0  0  0  0  0
    6.4680    2.7938    0.0000 F   0  0  0  0  0  0  0  0  0  0  0  0
    5.6915   -0.1040    0.0000 F   0  0  0  0  0  0  0  0  0  0  0  0
    4.6309    1.7331    0.0000 C   0  0  0  0  0  0  0  0  0  0  0  0
    3.5702    0.6724    0.0000 O   0  0  0  0  0  0  0  0  0  0  0  0
    2.1213    1.0607    0.0000 C   0  0  0  0  0  0  0  0  0  0  0  0
    1.0607    0.0000    0.0000 C   0  0  0  0  0  0  0  0  0  0  0  0
    2.1213   -1.0607    0.0000 C   0  0  0  0  0  0  0  0  0  0  0  0
    1.7331   -2.5095    0.0000 O   0  0  0  0  0  0  0  0  0  0  0  0
    2.7938   -3.5702    0.0000 C   0  0  0  0  0  0  0  0  0  0  0  0
    2.4055   -5.0191    0.0000 C   0  0  0  0  0  0  0  0  0  0  0  0
    3.8544   -5.4073    0.0000 F   0  0  0  0  0  0  0  0  0  0  0  0
    0.9566   -4.6309    0.0000 F   0  0  0  0  0  0  0  0  0  0  0  0
    2.0173   -6.4680    0.0000 C   0  0  0  0  0  0  0  0  0  0  0  0
    0.5684   -6.0798    0.0000 F   0  0  0  0  0  0  0  0  0  0  0  0
    3.4662   -6.8562    0.0000 F   0  0  0  0  0  0  0  0  0  0  0  0
    1.6291   -7.9169    0.0000 C   0  0  0  0  0  0  0  0  0  0  0  0
    0.1802   -7.5286    0.0000 F   0  0  0  0  0  0  0  0  0  0  0  0
    3.0780   -8.3051    0.0000 F   0  0  0  0  0  0  0  0  0  0  0  0
    1.2408   -9.3658    0.0000 C   0  0  0  0  0  0  0  0  0  0  0  0
   -0.2081   -9.7540    0.0000 F   0  0  0  0  0  0  0  0  0  0  0  0
    2.3015  -10.4264    0.0000 F   0  0  0  0  0  0  0  0  0  0  0  0
   -0.0000   -1.0607    0.0000 C   0  0  0  0  0  0  0  0  0  0  0  0
   -1.0607    0.0000    0.0000 O   0  0  0  0  0  0  0  0  0  0  0  0
    0.0000    1.0607    0.0000 C   0  0  0  0  0  0  0  0  0  0  0  0
  1  2  1  0
  2  3  1  0
  2  4  1  0
  4  5  1  0
  4  6  1  0
  4  7  1  0
  7  8  1  0
  7  9  1  0
  7 10  1  0
 10 11  1  0
 10 12  1  0
 10 13  1  0
 13 14  1  0
 14 15  1  0
 15 16  1  0
 16 17  1  0
 17 18  1  0
 18 19  1  0
 19 20  1  0
 20 21  1  0
 20 22  1  0
 20 23  1  0
 23 24  1  0
 23 25  1  0
 23 26  1  0
 26 27  1  0
 26 28  1  0
 26 29  1  0
 29 30  1  0
 29 31  1  0
 16 32  1  0
 32 33  1  0
 33 34  1  0
 34 16  1  0
M  END
$$$$

     RDKit          2D

 20 20  0  0  0  0  0  0  0  0999 V2000
    3.0000   -1.5000    0.0000 C   0  0  0  0  0  0  0  0  0  0  0  0
    3.0000    0.0000    0.0000 C   0  0  0  0  0  0  0  0  0  0  0  0
    3.0000    1.5000    0.0000 C   0  0  0  0  0  0  0  0  0  0  0  0
    4.5000    0.0000    0.0000 C   0  0  0  0  0  0  0  0  0  0  0  0
    1.5000    0.0000    0.0000 C   0  0  0  0  0  0  0  0  0  0  0  0
    0.7500   -1.2990    0.0000 C   0  0  0  0  0  0  0  0  0  0  0  0
   -0.7500   -1.2990    0.0000 C   0  0  0  0  0  0  0  0  0  0  0  0
   -1.5000    0.0000    0.0000 N   0  0  0  0  0  0  0  0  0  0  0  0
   -0.7500    1.2990    0.0000 C   0  0  0  0  0  0  0  0  0  0  0  0
   -1.5000    2.5981    0.0000 C   0  0  0  0  0  0  0  0  0  0  0  0
   -2.7990    1.8481    0.0000 O   0  0  0  0  0  0  0  0  0  0  0  0
   -2.2500    3.8971    0.0000 C   0  0  0  0  0  0  0  0  0  0  0  0
   -3.0000    5.1962    0.0000 F   0  0  0  0  0  0  0  0  0  0  0  0
   -3.5490    3.1471    0.0000 F   0  0  0  0  0  0  0  0  0  0  0  0
   -1.5426    4.4302    0.0000 F   0  0  0  0  0  0  0  0  0  0  0  0
   -0.2010    3.3481    0.0000 C   0  0  0  0  0  0  0  0  0  0  0  0
    1.0981    4.0981    0.0000 F   0  0  0  0  0  0  0  0  0  0  0  0
   -0.5470    4.1634    0.0000 F   0  0  0  0  0  0  0  0  0  0  0  0
    0.8411    2.2691    0.0000 F   0  0  0  0  0  0  0  0  0  0  0  0
    0.7500    1.2990    0.0000 C   0  0  0  0  0  0  0  0  0  0  0  0
  1  2  1  0
  2  3  1  0
  2  4  1  0
  2  5  1  0
  5  6  2  0
  6  7  1  0
  7  8  2  0
  8  9  1  0
  9 10  1  0
 10 11  1  0
 10 12  1  0
 12 13  1  0
 12 14  1  0
 12 15  1  0
 10 16  1  0
 16 17  1  0
 16 18  1  0
 16 19  1  0
  9 20  2  0
 20  5  1  0
M  END
$$$$

     RDKit          2D

 58 54  0  0  0  0  0  0  0  0999 V2000
    0.0000    0.0000    0.0000 C   0  0  0  0  0  0  0  0  0  0  0  0
    1.2990    0.7500    0.0000 C   0  0  0  0  0  0  0  0  0  0  0  0
    2.5981    1.5000    0.0000 C   0  0  0  0  0  0  0  0  0  0  0  0
    2.0490   -0.5490    0.0000 C   0  0  0  0  0  0  0  0  0  0  0  0
    0.5490    2.0490    0.0000 C   0  0  0  0  0  0  0  0  0  0  0  0
   -0.9510    2.0490    0.0000 O   0  0  0  0  0  0  0  0  0  0  0  0
    1.2990    3.3481    0.0000 C   0  0  0  0  0  0  0  0  0  0  0  0
    0.5490    4.6471    0.0000 C   0  0  0  0  0  0  0  0  0  0  0  0
   -0.9510    4.6471    0.0000 O   0  0  0  0  0  0  0  0  0  0  0  0
    1.2990    5.9462    0.0000 C   0  0  0  0  0  0  0  0  0  0  0  0
    0.0000    6.6962    0.0000 F   0  0  0  0  0  0  0  0  0  0  0  0
    2.5981    5.1962    0.0000 F   0  0  0  0  0  0  0  0  0  0  0  0
    2.0490    7.2452    0.0000 C   0  0  0  0  0  0  0  0  0  0  0  0
    3.3481    6.4952    0.0000 F   0  0  0  0  0  0  0  0  0  0  0  0
    0.7500    7.9952    0.0000 F   0  0  0  0  0  0  0  0  0  0  0  0
    2.7990    8.5442    0.0000 C   0  0  0  0  0  0  0  0  0  0  0  0
    3.5490    9.8433    0.0000 F   0  0  0  0  0  0  0  0  0  0  0  0
    1.5000    9.2942    0.0000 F   0  0  0  0  0  0  0  0  0  0  0  0
    4.0981    7.7942    0.0000 F   0  0  0  0  0  0  0  0  0  0  0  0
    6.0490    0.0000    0.0000 C   0  0  0  0  0  0  0  0  0  0  0  0
    7.3481    0.7500    0.0000 C   0  0  0  0  0  0  0  0  0  0  0  0
    8.6471    1.5000    0.0000 C   0  0  0  0  0  0  0  0  0  0  0  0
    8.0981   -0.5490    0.0000 C   0  0  0  0  0  0  0  0  0  0  0  0
    6.5981    2.0490    0.0000 C   0  0  0  0  0  0  0  0  0  0  0  0
    5.0981    2.0490    0.0000 O   0  0  0  0  0  0  0  0  0  0  0  0
    7.3481    3.3481    0.0000 C   0  0  0  0  0  0  0  0  0  0  0  0
    6.5981    4.6471    0.0000 C   0  0  0  0  0  0  0  0  0  0  0  0
    5.0981    4.6471    0.0000 O   0  0  0  0  0  0  0  0  0  0  0  0
    7.3481    5.9462    0.0000 C   0  0  0  0  0  0  0  0  0  0  0  0
    6.0490    6.6962    0.0000 F   0  0  0  0  0  0  0  0  0  0  0  0
    8.6471    5.1962    0.0000 F   0  0  0  0  0  0  0  0  0  0  0  0
    8.0981    7.2452    0.0000 C   0  0  0  0  0  0  0  0  0  0  0  0
    9.3971    6.4952    0.0000 F   0  0  0  0  0  0  0  0  0  0  0  0
    6.7990    7.9952    0.0000 F   0  0  0  0  0  0  0  0  0  0  0  0
    8.8481    8.5442    0.0000 C   0  0  0  0  0  0  0  0  0  0  0  0
    9.5981    9.8433    0.0000 F   0  0  0  0  0  0  0  0  0  0  0  0
    7.5490    9.2942    0.0000 F   0  0  0  0  0  0  0  0  0  0  0  0
   10.1471    7.7942    0.0000 F   0  0  0  0  0  0  0  0  0  0  0  0
    0.0000   11.3923    0.0000 C   0  0  0  0  0  0  0  0  0  0  0  0
    1.2990   12.1423    0.0000 C   0  0  0  0  0  0  0  0  0  0  0  0
    2.5981   12.8923    0.0000 C   0  0  0  0  0  0  0  0  0  0  0  0
    2.0490   10.8433    0.0000 C   0  0  0  0  0  0  0  0  0  0  0  0
    0.5490   13.4413    0.0000 C   0  0  0  0  0  0  0  0  0  0  0  0
   -0.9510   13.4413    0.0000 O   0  0  0  0  0  0  0  0  0  0  0  0
    1.2990   14.7404    0.0000 C   0  0  0  0  0  0  0  0  0  0  0  0
    0.5490   16.0394    0.0000 C   0  0  0  0  0  0  0  0  0  0  0  0
   -0.9510   16.0394    0.0000 O   0  0  0  0  0  0  0  0  0  0  0  0
    1.2990   17.3385    0.0000 C   0  0  0  0  0  0  0  0  0  0  0  0
    0.0000   18.0885    0.0000 F   0  0  0  0  0  0  0  0  0  0  0  0
    2.5981   16.5885    0.0000 F   0  0  0  0  0  0  0  0  0  0  0  0
    2.0490   18.6375    0.0000 C   0  0  0  0  0  0  0  0  0  0  0  0
    3.3481   17.8875    0.0000 F   0  0  0  0  0  0  0  0  0  0  0  0
    0.7500   19.3875    0.0000 F   0  0  0  0  0  0  0  0  0  0  0  0
    2.7990   19.9365    0.0000 C   0  0  0  0  0  0  0  0  0  0  0  0
    3.5490   21.2356    0.0000 F   0  0  0  0  0  0  0  0  0  0  0  0
    1.5000   20.6865    0.0000 F   0  0  0  0  0  0  0  0  0  0  0  0
    4.0981   19.1865    0.0000 F   0  0  0  0  0  0  0  0  0  0  0  0
   11.1471    0.0000    0.0000 Gd  0  0  0  0  0 15  0  0  0  0  0  0
  1  2  1  0
  2  3  1  0
  2  4  1  0
  2  5  1  0
  5  6  2  0
  5  7  1  0
  7  8  1  0
  8  9  2  0
  8 10  1  0
 10 11  1  0
 10 12  1  0
 10 13  1  0
 13 14  1  0
 13 15  1  0
 13 16  1  0
 16 17  1  0
 16 18  1  0
 16 19  1  0
 20 21  1  0
 21 22  1  0
 21 23  1  0
 21 24  1  0
 24 25  2  0
 24 26  1  0
 26 27  1  0
 27 28  2  0
 27 29  1  0
 29 30  1  0
 29 31  1  0
 29 32  1  0
 32 33  1  0
 32 34  1  0
 32 35  1  0
 35 36  1  0
 35 37  1  0
 35 38  1  0
 39 40  1  0
 40 41  1  0
 40 42  1  0
 40 43  1  0
 43 44  2  0
 43 45  1  0
 45 46  1  0
 46 47  2  0
 46 48  1  0
 48 49  1  0
 48 50  1  0
 48 51  1  0
 51 52  1  0
 51 53  1  0
 51 54  1  0
 54 55  1  0
 54 56  1  0
 54 57  1  0
M  CHG  4   7  -1  26  -1  45  -1  58   3
M  END
$$$$

     RDKit          2D

 20 19  0  0  0  0  0  0  0  0999 V2000
   -1.5000    0.0000    0.0000 F   0  0  0  0  0  0  0  0  0  0  0  0
    0.0000    0.0000    0.0000 C   0  0  0  0  0  0  0  0  0  0  0  0
    0.0000    1.5000    0.0000 F   0  0  0  0  0  0  0  0  0  0  0  0
   -0.0000   -1.5000    0.0000 Br  0  0  0  0  0  0  0  0  0  0  0  0
    1.5000    0.0000    0.0000 C   0  0  0  0  0  0  0  0  0  0  0  0
    1.5000    1.5000    0.0000 F   0  0  0  0  0  0  0  0  0  0  0  0
    1.5000   -1.5000    0.0000 F   0  0  0  0  0  0  0  0  0  0  0  0
    3.0000    0.0000    0.0000 C   0  0  0  0  0  0  0  0  0  0  0  0
    3.0000   -1.5000    0.0000 F   0  0  0  0  0  0  0  0  0  0  0  0
    3.0000    1.5000    0.0000 F   0  0  0  0  0  0  0  0  0  0  0  0
    4.5000    0.0000    0.0000 C   0  0  0  0  0  0  0  0  0  0  0  0
    4.5000   -1.5000    0.0000 F   0  0  0  0  0  0  0  0  0  0  0  0
    4.5000    1.5000    0.0000 F   0  0  0  0  0  0  0  0  0  0  0  0
    6.0000    0.0000    0.0000 C   0  0  0  0  0  0  0  0  0  0  0  0
    6.0000    1.5000    0.0000 F   0  0  0  0  0  0  0  0  0  0  0  0
    6.0000   -1.5000    0.0000 F   0  0  0  0  0  0  0  0  0  0  0  0
    7.5000    0.0000    0.0000 C   0  0  0  0  0  0  0  0  0  0  0  0
    9.0000    0.0000    0.0000 F   0  0  0  0  0  0  0  0  0  0  0  0
    7.5000   -1.5000    0.0000 F   0  0  0  0  0  0  0  0  0  0  0  0
    7.5000    1.5000    0.0000 Br  0  0  0  0  0  0  0  0  0  0  0  0
  1  2  1  0
  2  3  1  0
  2  4  1  0
  2  5  1  0
  5  6  1  0
  5  7  1  0
  5  8  1  0
  8  9  1  0
  8 10  1  0
  8 11  1  0
 11 12  1  0
 11 13  1  0
 11 14  1  0
 14 15  1  0
 14 16  1  0
 14 17  1  0
 17 18  1  0
 17 19  1  0
 17 20  1  0
M  END
$$$$

     RDKit          2D

 20 19  0  0  0  0  0  0  0  0999 V2000
    0.0000    0.0000    0.0000 C   0  0  0  0  0  0  0  0  0  0  0  0
    1.2990    0.7500    0.0000 O   0  0  0  0  0  0  0  0  0  0  0  0
    2.5981   -0.0000    0.0000 C   0  0  0  0  0  0  0  0  0  0  0  0
    2.5981   -1.5000    0.0000 O   0  0  0  0  0  0  0  0  0  0  0  0
    3.8971    0.7500    0.0000 C   0  0  0  0  0  0  0  0  0  0  0  0
    4.6471   -0.5490    0.0000 F   0  0  0  0  0  0  0  0  0  0  0  0
    3.1471    2.0490    0.0000 F   0  0  0  0  0  0  0  0  0  0  0  0
    5.1962    1.5000    0.0000 C   0  0  0  0  0  0  0  0  0  0  0  0
    4.4462    2.7990    0.0000 F   0  0  0  0  0  0  0  0  0  0  0  0
    5.9462    0.2010    0.0000 F   0  0  0  0  0  0  0  0  0  0  0  0
    6.4952    2.2500    0.0000 C   0  0  0  0  0  0  0  0  0  0  0  0
    7.2452    0.9510    0.0000 F   0  0  0  0  0  0  0  0  0  0  0  0
    5.7452    3.5490    0.0000 F   0  0  0  0  0  0  0  0  0  0  0  0
    7.7942    3.0000    0.0000 C   0  0  0  0  0  0  0  0  0  0  0  0
    7.0442    4.2990    0.0000 F   0  0  0  0  0  0  0  0  0  0  0  0
    8.5442    1.7010    0.0000 F   0  0  0  0  0  0  0  0  0  0  0  0
    9.0933    3.7500    0.0000 C   0  0  0  0  0  0  0  0  0  0  0  0
   10.3923    4.5000    0.0000 F   0  0  0  0  0  0  0  0  0  0  0  0
    9.8433    2.4510    0.0000 F   0  0  0  0  0  0  0  0  0  0  0  0
    8.3433    5.0490    0.0000 F   0  0  0  0  0  0  0  0  0  0  0  0
  1  2  1  0
  2  3  1  0
  3  4  2  0
  3  5  1  0
  5  6  1  0
  5  7  1  0
  5  8  1  0
  8  9  1  0
  8 10  1  0
  8 11  1  0
 11 12  1  0
 11 13  1  0
 11 14  1  0
 14 15  1  0
 14 16  1  0
 14 17  1  0
 17 18  1  0
 17 19  1  0
 17 20  1  0
M  END
$$$$

     RDKit          2D

 15 14  0  0  0  0  0  0  0  0999 V2000
    0.0000    0.0000    0.0000 C   0  0  0  0  0  0  0  0  0  0  0  0
    1.2990    0.7500    0.0000 C   0  0  0  0  0  0  0  0  0  0  0  0
    2.5981   -0.0000    0.0000 O   0  0  0  0  0  0  0  0  0  0  0  0
    3.8971    0.7500    0.0000 C   0  0  0  0  0  0  0  0  0  0  0  0
    3.1471    2.0490    0.0000 F   0  0  0  0  0  0  0  0  0  0  0  0
    4.6471   -0.5490    0.0000 F   0  0  0  0  0  0  0  0  0  0  0  0
    5.1962    1.5000    0.0000 C   0  0  0  0  0  0  0  0  0  0  0  0
    5.1962    3.0000    0.0000 C   0  0  0  0  0  0  0  0  0  0  0  0
    5.1962    4.5000    0.0000 F   0  0  0  0  0  0  0  0  0  0  0  0
    6.6962    3.0000    0.0000 F   0  0  0  0  0  0  0  0  0  0  0  0
    3.6962    3.0000    0.0000 F   0  0  0  0  0  0  0  0  0  0  0  0
    6.4952    0.7500    0.0000 C   0  0  0  0  0  0  0  0  0  0  0  0
    7.7942   -0.0000    0.0000 F   0  0  0  0  0  0  0  0  0  0  0  0
    7.2452    2.0490    0.0000 F   0  0  0  0  0  0  0  0  0  0  0  0
    5.7452   -0.5490    0.0000 F   0  0  0  0  0  0  0  0  0  0  0  0
  1  2  1  0
  2  3  1  0
  3  4  1  0
  4  5  1  0
  4  6  1  0
  4  7  1  0
  7  8  1  0
  8  9  1  0
  8 10  1  0
  8 11  1  0
  7 12  1  0
 12 13  1  0
 12 14  1  0
 12 15  1  0
M  END
$$$$

     RDKit          2D

 18 17  0  0  0  0  0  0  0  0999 V2000
   -1.2990    0.7500    0.0000 O   0  0  0  0  0  0  0  0  0  0  0  0
    0.0000    0.0000    0.0000 C   0  0  0  0  0  0  0  0  0  0  0  0
    1.2990    0.7500    0.0000 C   0  0  0  0  0  0  0  0  0  0  0  0
    2.5981   -0.0000    0.0000 C   0  0  0  0  0  0  0  0  0  0  0  0
    3.3481    1.2990    0.0000 F   0  0  0  0  0  0  0  0  0  0  0  0
    1.8481   -1.2990    0.0000 F   0  0  0  0  0  0  0  0  0  0  0  0
    3.8971   -0.7500    0.0000 C   0  0  0  0  0  0  0  0  0  0  0  0
    3.1471   -2.0490    0.0000 F   0  0  0  0  0  0  0  0  0  0  0  0
    4.6471    0.5490    0.0000 F   0  0  0  0  0  0  0  0  0  0  0  0
    5.1962   -1.5000    0.0000 C   0  0  0  0  0  0  0  0  0  0  0  0
    4.4462   -2.7990    0.0000 F   0  0  0  0  0  0  0  0  0  0  0  0
    5.9462   -0.2010    0.0000 F   0  0  0  0  0  0  0  0  0  0  0  0
    6.4952   -2.2500    0.0000 C   0  0  0  0  0  0  0  0  0  0  0  0
    7.2452   -0.9510    0.0000 F   0  0  0  0  0  0  0  0  0  0  0  0
    5.7452   -3.5490    0.0000 F   0  0  0  0  0  0  0  0  0  0  0  0
    7.7942   -3.0000    0.0000 C   0  0  0  0  0  0  0  0  0  0  0  0
    9.0933   -2.2500    0.0000 C   0  0  0  0  0  0  0  0  0  0  0  0
   10.3923   -3.0000    0.0000 O   0  0  0  0  0  0  0  0  0  0  0  0
  1  2  1  0
  2  3  1  0
  3  4  1  0
  4  5  1  0
  4  6  1  0
  4  7  1  0
  7  8  1  0
  7  9  1  0
  7 10  1  0
 10 11  1  0
 10 12  1  0
 10 13  1  0
 13 14  1  0
 13 15  1  0
 13 16  1  0
 16 17  1  0
 17 18  1  0
M  END
$$$$

     RDKit          2D

 18 17  0  0  0  0  0  0  0  0999 V2000
    0.0000    0.0000    0.0000 C   0  0  0  0  0  0  0  0  0  0  0  0
    1.2990    0.7500    0.0000 C   0  0  0  0  0  0  0  0  0  0  0  0
    2.5981   -0.0000    0.0000 C   0  0  0  0  0  0  0  0  0  0  0  0
    3.8971    0.7500    0.0000 C   0  0  0  0  0  0  0  0  0  0  0  0
    5.1962   -0.0000    0.0000 C   0  0  0  0  0  0  0  0  0  0  0  0
    6.4952    0.7500    0.0000 C   0  0  0  0  0  0  0  0  0  0  0  0
    7.7942   -0.0000    0.0000 C   0  0  0  0  0  0  0  0  0  0  0  0
    9.0933    0.7500    0.0000 C   0  0  0  0  0  0  0  0  0  0  0  0
   10.3923   -0.0000    0.0000 O   0  0  0  0  0  0  0  0  0  0  0  0
   11.6913    0.7500    0.0000 C   0  0  0  0  0  0  0  0  0  0  0  0
   11.6913    2.2500    0.0000 O   0  0  0  0  0  0  0  0  0  0  0  0
   12.9904   -0.0000    0.0000 C   0  0  0  0  0  0  0  0  0  0  0  0
   13.7404    1.2990    0.0000 F   0  0  0  0  0  0  0  0  0  0  0  0
   12.2404   -1.2990    0.0000 F   0  0  0  0  0  0  0  0  0  0  0  0
   14.2894   -0.7500    0.0000 C   0  0  0  0  0  0  0  0  0  0  0  0
   15.5885   -1.5000    0.0000 F   0  0  0  0  0  0  0  0  0  0  0  0
   13.5394   -2.0490    0.0000 F   0  0  0  0  0  0  0  0  0  0  0  0
   15.0394    0.5490    0.0000 F   0  0  0  0  0  0  0  0  0  0  0  0
  1  2  1  0
  2  3  1  0
  3  4  1  0
  4  5  1  0
  5  6  1  0
  6  7  1  0
  7  8  1  0
  8  9  1  0
  9 10  1  0
 10 11  2  0
 10 12  1  0
 12 13  1  0
 12 14  1  0
 12 15  1  0
 15 16  1  0
 15 17  1  0
 15 18  1  0
M  END
$$$$

     RDKit          2D

 37 36  0  0  0  0  0  0  0  0999 V2000
    0.0000    0.0000    0.0000 C   0  0  0  0  0  0  0  0  0  0  0  0
    1.2990    0.7500    0.0000 C   0  0  0  0  0  0  0  0  0  0  0  0
    2.5981   -0.0000    0.0000 C   0  0  0  0  0  0  0  0  0  0  0  0
    3.8971    0.7500    0.0000 C   0  0  0  0  0  0  0  0  0  0  0  0
    5.1962   -0.0000    0.0000 C   0  0  0  0  0  0  0  0  0  0  0  0
    6.4952    0.7500    0.0000 C   0  0  0  0  0  0  0  0  0  0  0  0
    7.7942   -0.0000    0.0000 C   0  0  0  0  0  0  0  0  0  0  0  0
    9.0933    0.7500    0.0000 C   0  0  0  0  0  0  0  0  0  0  0  0
   10.3923   -0.0000    0.0000 C   0  0  0  0  0  0  0  0  0  0  0  0
   11.6913    0.7500    0.0000 C   0  0  0  0  0  0  0  0  0  0  0  0
   11.6913    2.2500    0.0000 O   0  0  0  0  0  0  0  0  0  0  0  0
   12.9904   -0.0000    0.0000 O   0  0  0  0  0  0  0  0  0  0  0  0
   14.2894    0.7500    0.0000 C   0  0  0  0  0  0  0  0  0  0  0  0
   15.5885   -0.0000    0.0000 C   0  0  0  0  0  0  0  0  0  0  0  0
   16.3385    1.2990    0.0000 F   0  0  0  0  0  0  0  0  0  0  0  0
   14.8385   -1.2990    0.0000 F   0  0  0  0  0  0  0  0  0  0  0  0
   16.8875   -0.7500    0.0000 C   0  0  0  0  0  0  0  0  0  0  0  0
   16.1375   -2.0490    0.0000 F   0  0  0  0  0  0  0  0  0  0  0  0
   17.6375    0.5490    0.0000 F   0  0  0  0  0  0  0  0  0  0  0  0
   18.1865   -1.5000    0.0000 C   0  0  0  0  0  0  0  0  0  0  0  0
   18.9365   -0.2010    0.0000 F   0  0  0  0  0  0  0  0  0  0  0  0
   17.4365   -2.7990    0.0000 F   0  0  0  0  0  0  0  0  0  0  0  0
   19.4856   -2.2500    0.0000 C   0  0  0  0  0  0  0  0  0  0  0  0
   18.7356   -3.5490    0.0000 F   0  0  0  0  0  0  0  0  0  0  0  0
   20.2356   -0.9510    0.0000 F   0  0  0  0  0  0  0  0  0  0  0  0
   20.7846   -3.0000    0.0000 C   0  0  0  0  0  0  0  0  0  0  0  0
   20.0346   -4.2990    0.0000 F   0  0  0  0  0  0  0  0  0  0  0  0
   21.5346   -1.7010    0.0000 F   0  0  0  0  0  0  0  0  0  0  0  0
   22.0836   -3.7500    0.0000 C   0  0  0  0  0  0  0  0  0  0  0  0
   22.8336   -2.4510    0.0000 F   0  0  0  0  0  0  0  0  0  0  0  0
   21.3336   -5.0490    0.0000 F   0  0  0  0  0  0  0  0  0  0  0  0
   23.3827   -4.5000    0.0000 C   0  0  0  0  0  0  0  0  0  0  0  0
   22.6327   -5.7990    0.0000 F   0  0  0  0  0  0  0  0  0  0  0  0
   24.1327   -3.2010    0.0000 F   0  0  0  0  0  0  0  0  0  0  0  0
   24.6817   -5.2500    0.0000 C   0  0  0  0  0  0  0  0  0  0  0  0
   24.6817   -6.7500    0.0000 F   0  0  0  0  0  0  0  0  0  0  0  0
   25.9808   -4.5000    0.0000 F   0  0  0  0  0  0  0  0  0  0  0  0
  1  2  1  0
  2  3  1  0
  3  4  1  0
  4  5  1  0
  5  6  1  0
  6  7  1  0
  7  8  1  0
  8  9  1  0
  9 10  1  0
 10 11  2  0
 10 12  1  0
 12 13  1  0
 13 14  1  0
 14 15  1  0
 14 16  1  0
 14 17  1  0
 17 18  1  0
 17 19  1  0
 17 20  1  0
 20 21  1  0
 20 22  1  0
 20 23  1  0
 23 24  1  0
 23 25  1  0
 23 26  1  0
 26 27  1  0
 26 28  1  0
 26 29  1  0
 29 30  1  0
 29 31  1  0
 29 32  1  0
 32 33  1  0
 32 34  1  0
 32 35  1  0
 35 36  1  0
 35 37  1  0
M  END
$$$$

     RDKit          2D

 14 13  0  0  0  0  0  0  0  0999 V2000
    0.0000    0.0000    0.0000 C   0  0  0  0  0  0  0  0  0  0  0  0
    1.2990    0.7500    0.0000 C   0  0  0  0  0  0  0  0  0  0  0  0
    2.5981    1.5000    0.0000 C   0  0  0  0  0  0  0  0  0  0  0  0
    0.5490    2.0490    0.0000 O   0  0  0  0  0  0  0  0  0  0  0  0
    2.0490   -0.5490    0.0000 C   0  0  0  0  0  0  0  0  0  0  0  0
    3.3481    0.2010    0.0000 F   0  0  0  0  0  0  0  0  0  0  0  0
    0.7500   -1.2990    0.0000 F   0  0  0  0  0  0  0  0  0  0  0  0
    2.7990   -1.8481    0.0000 C   0  0  0  0  0  0  0  0  0  0  0  0
    1.5000   -2.5981    0.0000 F   0  0  0  0  0  0  0  0  0  0  0  0
    4.0981   -1.0981    0.0000 F   0  0  0  0  0  0  0  0  0  0  0  0
    3.5490   -3.1471    0.0000 C   0  0  0  0  0  0  0  0  0  0  0  0
    4.2990   -4.4462    0.0000 F   0  0  0  0  0  0  0  0  0  0  0  0
    4.8481   -2.3971    0.0000 F   0  0  0  0  0  0  0  0  0  0  0  0
    2.2500   -3.8971    0.0000 F   0  0  0  0  0  0  0  0  0  0  0  0
  1  2  1  0
  2  3  1  0
  2  4  1  0
  2  5  1  0
  5  6  1  0
  5  7  1  0
  5  8  1  0
  8  9  1  0
  8 10  1  0
  8 11  1  0
 11 12  1  0
 11 13  1  0
 11 14  1  0
M  END
$$$$

     RDKit          2D

 25 24  0  0  0  0  0  0  0  0999 V2000
    0.0000    0.0000    0.0000 C   0  0  0  0  0  0  0  0  0  0  0  0
    1.2990    0.7500    0.0000 C   0  0  0  0  0  0  0  0  0  0  0  0
    2.5981   -0.0000    0.0000 C   0  0  0  0  0  0  0  0  0  0  0  0
    3.8971    0.7500    0.0000 C   0  0  0  0  0  0  0  0  0  0  0  0
    5.1962   -0.0000    0.0000 C   0  0  0  0  0  0  0  0  0  0  0  0
    6.4952    0.7500    0.0000 C   0  0  0  0  0  0  0  0  0  0  0  0
    7.7942   -0.0000    0.0000 C   0  0  0  0  0  0  0  0  0  0  0  0
    9.0933    0.7500    0.0000 C   0  0  0  0  0  0  0  0  0  0  0  0
   10.3923   -0.0000    0.0000 C   0  0  0  0  0  0  0  0  0  0  0  0
   11.6913    0.7500    0.0000 C   0  0  0  0  0  0  0  0  0  0  0  0
   11.6913    2.2500    0.0000 O   0  0  0  0  0  0  0  0  0  0  0  0
   12.9904   -0.0000    0.0000 O   0  0  0  0  0  0  0  0  0  0  0  0
   14.2894    0.7500    0.0000 C   0  0  0  0  0  0  0  0  0  0  0  0
   15.5885   -0.0000    0.0000 C   0  0  0  0  0  0  0  0  0  0  0  0
   16.3385    1.2990    0.0000 F   0  0  0  0  0  0  0  0  0  0  0  0
   14.8385   -1.2990    0.0000 F   0  0  0  0  0  0  0  0  0  0  0  0
   16.8875   -0.7500    0.0000 C   0  0  0  0  0  0  0  0  0  0  0  0
   16.1375   -2.0490    0.0000 F   0  0  0  0  0  0  0  0  0  0  0  0
   17.6375    0.5490    0.0000 F   0  0  0  0  0  0  0  0  0  0  0  0
   18.1865   -1.5000    0.0000 C   0  0  0  0  0  0  0  0  0  0  0  0
   17.4365   -2.7990    0.0000 F   0  0  0  0  0  0  0  0  0  0  0  0
   18.9365   -0.2010    0.0000 F   0  0  0  0  0  0  0  0  0  0  0  0
   19.4856   -2.2500    0.0000 C   0  0  0  0  0  0  0  0  0  0  0  0
   19.4856   -3.7500    0.0000 F   0  0  0  0  0  0  0  0  0  0  0  0
   20.7846   -1.5000    0.0000 F   0  0  0  0  0  0  0  0  0  0  0  0
  1  2  1  0
  2  3  1  0
  3  4  1  0
  4  5  1  0
  5  6  1  0
  6  7  1  0
  7  8  1  0
  8  9  1  0
  9 10  1  0
 10 11  2  0
 10 12  1  0
 12 13  1  0
 13 14  1  0
 14 15  1  0
 14 16  1  0
 14 17  1  0
 17 18  1  0
 17 19  1  0
 17 20  1  0
 20 21  1  0
 20 22  1  0
 20 23  1  0
 23 24  1  0
 23 25  1  0
M  END
$$$$

     RDKit          2D

 23 22  0  0  0  0  0  0  0  0999 V2000
    0.0000    0.0000    0.0000 C   0  0  0  0  0  0  0  0  0  0  0  0
    1.2990    0.7500    0.0000 C   0  0  0  0  0  0  0  0  0  0  0  0
    2.5981   -0.0000    0.0000 C   0  0  0  0  0  0  0  0  0  0  0  0
    3.8971    0.7500    0.0000 C   0  0  0  0  0  0  0  0  0  0  0  0
    5.1962   -0.0000    0.0000 O   0  0  0  0  0  0  0  0  0  0  0  0
    6.4952    0.7500    0.0000 C   0  0  0  0  0  0  0  0  0  0  0  0
    6.4952    2.2500    0.0000 O   0  0  0  0  0  0  0  0  0  0  0  0
    7.7942   -0.0000    0.0000 C   0  0  0  0  0  0  0  0  0  0  0  0
    9.0933    0.7500    0.0000 C   0  0  0  0  0  0  0  0  0  0  0  0
   10.3923   -0.0000    0.0000 C   0  0  0  0  0  0  0  0  0  0  0  0
    7.7942   -1.5000    0.0000 O   0  0  0  0  0  0  0  0  0  0  0  0
    9.0933   -2.2500    0.0000 C   0  0  0  0  0  0  0  0  0  0  0  0
   10.3923   -1.5000    0.0000 O   0  0  0  0  0  0  0  0  0  0  0  0
    9.0933   -3.7500    0.0000 C   0  0  0  0  0  0  0  0  0  0  0  0
   10.5933   -3.7500    0.0000 F   0  0  0  0  0  0  0  0  0  0  0  0
    7.5933   -3.7500    0.0000 F   0  0  0  0  0  0  0  0  0  0  0  0
    9.0933   -5.2500    0.0000 C   0  0  0  0  0  0  0  0  0  0  0  0
    7.5933   -5.2500    0.0000 F   0  0  0  0  0  0  0  0  0  0  0  0
   10.5933   -5.2500    0.0000 F   0  0  0  0  0  0  0  0  0  0  0  0
    9.0933   -6.7500    0.0000 C   0  0  0  0  0  0  0  0  0  0  0  0
    9.0933   -8.2500    0.0000 F   0  0  0  0  0  0  0  0  0  0  0  0
   10.5933   -6.7500    0.0000 F   0  0  0  0  0  0  0  0  0  0  0  0
    7.5933   -6.7500    0.0000 F   0  0  0  0  0  0  0  0  0  0  0  0
  1  2  1  0
  2  3  1  0
  3  4  1  0
  4  5  1  0
  5  6  1  0
  6  7  2  0
  6  8  1  0
  8  9  1  0
  9 10  1  0
  8 11  1  0
 11 12  1  0
 12 13  2  0
 12 14  1  0
 14 15  1  0
 14 16  1  0
 14 17  1  0
 17 18  1  0
 17 19  1  0
 17 20  1  0
 20 21  1  0
 20 22  1  0
 20 23  1  0
M  END
$$$$

     RDKit          2D

 14 13  0  0  0  0  0  0  0  0999 V2000
   -1.2990    0.7500    0.0000 O   0  0  0  0  0  0  0  0  0  0  0  0
    0.0000    0.0000    0.0000 C   0  0  0  0  0  0  0  0  0  0  0  0
    1.2990    0.7500    0.0000 C   0  0  0  0  0  0  0  0  0  0  0  0
    2.0490   -0.5490    0.0000 F   0  0  0  0  0  0  0  0  0  0  0  0
    0.5490    2.0490    0.0000 F   0  0  0  0  0  0  0  0  0  0  0  0
    2.5981    1.5000    0.0000 C   0  0  0  0  0  0  0  0  0  0  0  0
    1.8481    2.7990    0.0000 F   0  0  0  0  0  0  0  0  0  0  0  0
    3.3481    0.2010    0.0000 F   0  0  0  0  0  0  0  0  0  0  0  0
    3.8971    2.2500    0.0000 C   0  0  0  0  0  0  0  0  0  0  0  0
    3.1471    3.5490    0.0000 F   0  0  0  0  0  0  0  0  0  0  0  0
    4.6471    0.9510    0.0000 F   0  0  0  0  0  0  0  0  0  0  0  0
    5.1962    3.0000    0.0000 C   0  0  0  0  0  0  0  0  0  0  0  0
    5.1962    4.5000    0.0000 F   0  0  0  0  0  0  0  0  0  0  0  0
    6.4952    2.2500    0.0000 F   0  0  0  0  0  0  0  0  0  0  0  0
  1  2  2  0
  2  3  1  0
  3  4  1  0
  3  5  1  0
  3  6  1  0
  6  7  1  0
  6  8  1  0
  6  9  1  0
  9 10  1  0
  9 11  1  0
  9 12  1  0
 12 13  1  0
 12 14  1  0
M  END
$$$$

     RDKit          2D

 23 22  0  0  0  0  0  0  0  0999 V2000
   -1.2990    2.2500    0.0000 F   0  0  0  0  0  0  0  0  0  0  0  0
   -1.2990    0.7500    0.0000 C   0  0  0  0  0  0  0  0  0  0  0  0
    0.0000    0.0000    0.0000 C   0  0  0  0  0  0  0  0  0  0  0  0
    1.2990    0.7500    0.0000 C   0  0  0  0  0  0  0  0  0  0  0  0
    2.5981   -0.0000    0.0000 C   0  0  0  0  0  0  0  0  0  0  0  0
    3.3481    1.2990    0.0000 F   0  0  0  0  0  0  0  0  0  0  0  0
    1.8481   -1.2990    0.0000 F   0  0  0  0  0  0  0  0  0  0  0  0
    3.8971   -0.7500    0.0000 C   0  0  0  0  0  0  0  0  0  0  0  0
    5.1962   -1.5000    0.0000 F   0  0  0  0  0  0  0  0  0  0  0  0
    3.1471   -2.0490    0.0000 F   0  0  0  0  0  0  0  0  0  0  0  0
    4.6471    0.5490    0.0000 F   0  0  0  0  0  0  0  0  0  0  0  0
   -2.5981    0.0000    0.0000 C   0  0  0  0  0  0  0  0  0  0  0  0
   -1.8481   -1.2990    0.0000 F   0  0  0  0  0  0  0  0  0  0  0  0
   -3.3481    1.2990    0.0000 F   0  0  0  0  0  0  0  0  0  0  0  0
   -3.8971   -0.7500    0.0000 C   0  0  0  0  0  0  0  0  0  0  0  0
   -3.8971   -2.2500    0.0000 C   0  0  0  0  0  0  0  0  0  0  0  0
   -5.1962   -3.0000    0.0000 C   0  0  0  0  0  0  0  0  0  0  0  0
   -4.4462   -4.2990    0.0000 F   0  0  0  0  0  0  0  0  0  0  0  0
   -5.9462   -1.7010    0.0000 F   0  0  0  0  0  0  0  0  0  0  0  0
   -6.4952   -3.7500    0.0000 C   0  0  0  0  0  0  0  0  0  0  0  0
   -7.7942   -4.5000    0.0000 F   0  0  0  0  0  0  0  0  0  0  0  0
   -7.2452   -2.4510    0.0000 F   0  0  0  0  0  0  0  0  0  0  0  0
   -5.7452   -5.0490    0.0000 F   0  0  0  0  0  0  0  0  0  0  0  0
  1  2  1  0
  2  3  2  3
  3  4  1  0
  4  5  1  0
  5  6  1  0
  5  7  1  0
  5  8  1  0
  8  9  1  0
  8 10  1  0
  8 11  1  0
  2 12  1  0
 12 13  1  0
 12 14  1  0
 12 15  1  0
 15 16  1  0
 16 17  1  0
 17 18  1  0
 17 19  1  0
 17 20  1  0
 20 21  1  0
 20 22  1  0
 20 23  1  0
M  END
$$$$

     RDKit          2D

 20 20  0  0  0  0  0  0  0  0999 V2000
   12.0000   -2.5981    0.0000 F   0  0  0  0  0  0  0  0  0  0  0  0
   10.5000   -2.5981    0.0000 C   0  0  0  0  0  0  0  0  0  0  0  0
   10.5000   -4.0981    0.0000 F   0  0  0  0  0  0  0  0  0  0  0  0
   10.5000   -1.0981    0.0000 F   0  0  0  0  0  0  0  0  0  0  0  0
    9.0000   -2.5981    0.0000 C   0  0  0  0  0  0  0  0  0  0  0  0
    9.0000   -1.0981    0.0000 F   0  0  0  0  0  0  0  0  0  0  0  0
    9.0000   -4.0981    0.0000 F   0  0  0  0  0  0  0  0  0  0  0  0
    7.5000   -2.5981    0.0000 C   0  0  0  0  0  0  0  0  0  0  0  0
    7.5000   -4.0981    0.0000 F   0  0  0  0  0  0  0  0  0  0  0  0
    7.5000   -1.0981    0.0000 F   0  0  0  0  0  0  0  0  0  0  0  0
    6.0000   -2.5981    0.0000 C   0  0  0  0  0  0  0  0  0  0  0  0
    5.2500   -1.2990    0.0000 N   0  0  0  0  0  0  0  0  0  0  0  0
    3.7500   -1.2990    0.0000 C   0  0  0  0  0  0  0  0  0  0  0  0
    3.0000    0.0000    0.0000 C   0  0  0  0  0  0  0  0  0  0  0  0
    1.5000    0.0000    0.0000 C   0  0  0  0  0  0  0  0  0  0  0  0
    0.7500   -1.2990    0.0000 C   0  0  0  0  0  0  0  0  0  0  0  0
   -0.7500   -1.2990    0.0000 C   0  0  0  0  0  0  0  0  0  0  0  0
   -1.5000    0.0000    0.0000 C   0  0  0  0  0  0  0  0  0  0  0  0
   -0.7500    1.2990    0.0000 C   0  0  0  0  0  0  0  0  0  0  0  0
    0.7500    1.2990    0.0000 C   0  0  0  0  0  0  0  0  0  0  0  0
  1  2  1  0
  2  3  1  0
  2  4  1  0
  2  5  1  0
  5  6  1  0
  5  7  1  0
  5  8  1  0
  8  9  1  0
  8 10  1  0
  8 11  1  0
 11 12  2  0
 12 13  1  0
 13 14  1  0
 14 15  1  0
 15 16  2  0
 16 17  1  0
 17 18  2  0
 18 19  1  0
 19 20  2  0
 20 15  1  0
M  END
$$$$

     RDKit          2D

 16 15  0  0  0  0  0  0  0  0999 V2000
   -1.5000    0.0000    0.0000 F   0  0  0  0  0  0  0  0  0  0  0  0
    0.0000    0.0000    0.0000 C   0  0  0  0  0  0  0  0  0  0  0  0
    0.0000    1.5000    0.0000 F   0  0  0  0  0  0  0  0  0  0  0  0
   -0.0000   -1.5000    0.0000 F   0  0  0  0  0  0  0  0  0  0  0  0
    1.5000    0.0000    0.0000 C   0  0  0  0  0  0  0  0  0  0  0  0
    3.0000    0.0000    0.0000 F   0  0  0  0  0  0  0  0  0  0  0  0
    1.5000   -1.5000    0.0000 F   0  0  0  0  0  0  0  0  0  0  0  0
    1.5000    1.5000    0.0000 S   0  0  0  0  0  0  0  0  0  0  0  0
    2.7990    2.2500    0.0000 S   0  0  0  0  0  0  0  0  0  0  0  0
    2.7990    3.7500    0.0000 C   0  0  0  0  0  0  0  0  0  0  0  0
    1.2990    3.7500    0.0000 F   0  0  0  0  0  0  0  0  0  0  0  0
    2.7990    5.2500    0.0000 F   0  0  0  0  0  0  0  0  0  0  0  0
    4.2990    3.7500    0.0000 C   0  0  0  0  0  0  0  0  0  0  0  0
    5.7990    3.7500    0.0000 F   0  0  0  0  0  0  0  0  0  0  0  0
    4.2990    5.2500    0.0000 F   0  0  0  0  0  0  0  0  0  0  0  0
    4.2990    2.2500    0.0000 F   0  0  0  0  0  0  0  0  0  0  0  0
  1  2  1  0
  2  3  1  0
  2  4  1  0
  2  5  1  0
  5  6  1  0
  5  7  1  0
  5  8  1  0
  8  9  1  0
  9 10  1  0
 10 11  1  0
 10 12  1  0
 10 13  1  0
 13 14  1  0
 13 15  1  0
 13 16  1  0
M  END
$$$$

     RDKit          2D

 21 22  0  0  0  0  0  0  0  0999 V2000
   -2.5981   -5.1073    0.0000 O   0  0  0  0  0  0  0  0  0  0  0  0
   -1.2990   -5.8573    0.0000 C   0  0  0  0  0  0  0  0  0  0  0  0
   -0.0000   -5.1073    0.0000 N   0  0  0  0  0  0  0  0  0  0  0  0
   -0.0000   -3.6073    0.0000 C   0  0  0  0  0  0  0  0  0  0  0  0
    1.2135   -2.7256    0.0000 N   0  0  0  0  0  0  0  0  0  0  0  0
    0.7500   -1.2990    0.0000 C   0  0  0  0  0  0  0  0  0  0  0  0
    1.5000    0.0000    0.0000 C   0  0  0  0  0  0  0  0  0  0  0  0
    0.7500    1.2990    0.0000 C   0  0  0  0  0  0  0  0  0  0  0  0
   -0.7500    1.2990    0.0000 C   0  0  0  0  0  0  0  0  0  0  0  0
   -1.5000    0.0000    0.0000 C   0  0  0  0  0  0  0  0  0  0  0  0
   -0.7500   -1.2990    0.0000 C   0  0  0  0  0  0  0  0  0  0  0  0
   -1.2135   -2.7256    0.0000 S   0  0  0  0  0  0  0  0  0  0  0  0
   -1.2990   -7.3573    0.0000 C   0  0  0  0  0  0  0  0  0  0  0  0
   -2.5981   -8.1073    0.0000 C   0  0  0  0  0  0  0  0  0  0  0  0
   -3.8971   -8.8573    0.0000 F   0  0  0  0  0  0  0  0  0  0  0  0
   -1.8481   -9.4063    0.0000 F   0  0  0  0  0  0  0  0  0  0  0  0
   -3.3481   -6.8083    0.0000 F   0  0  0  0  0  0  0  0  0  0  0  0
   -0.0000   -8.1073    0.0000 C   0  0  0  0  0  0  0  0  0  0  0  0
    1.2990   -8.8573    0.0000 F   0  0  0  0  0  0  0  0  0  0  0  0
   -0.7500   -9.4063    0.0000 F   0  0  0  0  0  0  0  0  0  0  0  0
    0.7500   -6.8083    0.0000 F   0  0  0  0  0  0  0  0  0  0  0  0
  1  2  2  0
  2  3  1  0
  3  4  1  0
  4  5  2  0
  5  6  1  0
  6  7  2  0
  7  8  1  0
  8  9  2  0
  9 10  1  0
 10 11  2  0
 11 12  1  0
  2 13  1  0
 13 14  1  0
 14 15  1  0
 14 16  1  0
 14 17  1  0
 13 18  1  0
 18 19  1  0
 18 20  1  0
 18 21  1  0
 12  4  1  0
 11  6  1  0
M  END
$$$$

     RDKit          2D

 14 14  0  0  0  0  0  0  0  0999 V2000
    3.0000    0.0000    0.0000 F   0  0  0  0  0  0  0  0  0  0  0  0
    1.5000    0.0000    0.0000 C   0  0  0  0  0  0  0  0  0  0  0  0
    0.7500   -1.2990    0.0000 C   0  0  0  0  0  0  0  0  0  0  0  0
    1.5000   -2.5981    0.0000 F   0  0  0  0  0  0  0  0  0  0  0  0
   -0.7500   -1.2990    0.0000 C   0  0  0  0  0  0  0  0  0  0  0  0
   -0.4895   -2.7762    0.0000 F   0  0  0  0  0  0  0  0  0  0  0  0
   -2.1595   -1.8121    0.0000 F   0  0  0  0  0  0  0  0  0  0  0  0
   -1.5000    0.0000    0.0000 C   0  0  0  0  0  0  0  0  0  0  0  0
   -2.6491   -0.9642    0.0000 F   0  0  0  0  0  0  0  0  0  0  0  0
   -2.6491    0.9642    0.0000 F   0  0  0  0  0  0  0  0  0  0  0  0
   -0.7500    1.2990    0.0000 C   0  0  0  0  0  0  0  0  0  0  0  0
   -1.5000    2.5981    0.0000 F   0  0  0  0  0  0  0  0  0  0  0  0
    0.7500    1.2990    0.0000 C   0  0  0  0  0  0  0  0  0  0  0  0
    1.5000    2.5981    0.0000 F   0  0  0  0  0  0  0  0  0  0  0  0
  1  2  1  0
  2  3  2  0
  3  4  1  0
  3  5  1  0
  5  6  1  0
  5  7  1  0
  5  8  1  0
  8  9  1  0
  8 10  1  0
  8 11  1  0
 11 12  1  0
 11 13  2  0
 13 14  1  0
 13  2  1  0
M  END
$$$$

     RDKit          2D

 41 41  0  0  0  0  0  0  0  0999 V2000
    6.0000    0.0000    0.0000 F   0  0  0  0  0  0  0  0  0  0  0  0
    4.5000    0.0000    0.0000 C   0  0  0  0  0  0  0  0  0  0  0  0
    4.5000   -1.5000    0.0000 F   0  0  0  0  0  0  0  0  0  0  0  0
    4.5000    1.5000    0.0000 F   0  0  0  0  0  0  0  0  0  0  0  0
    3.0000    0.0000    0.0000 C   0  0  0  0  0  0  0  0  0  0  0  0
    3.0000   -1.5000    0.0000 F   0  0  0  0  0  0  0  0  0  0  0  0
    3.1481    1.2059    0.0000 F   0  0  0  0  0  0  0  0  0  0  0  0
    1.5000    0.0000    0.0000 C   0  0  0  0  0  0  0  0  0  0  0  0
    0.7500   -1.2990    0.0000 N   0  0  0  0  0  0  0  0  0  0  0  0
   -0.7500   -1.2990    0.0000 C   0  0  0  0  0  0  0  0  0  0  0  0
   -1.5000   -2.5981    0.0000 C   0  0  0  0  0  0  0  0  0  0  0  0
   -0.2010   -3.3481    0.0000 F   0  0  0  0  0  0  0  0  0  0  0  0
   -2.6184   -2.1234    0.0000 F   0  0  0  0  0  0  0  0  0  0  0  0
   -2.2500   -3.8971    0.0000 C   0  0  0  0  0  0  0  0  0  0  0  0
   -3.0000   -5.1962    0.0000 F   0  0  0  0  0  0  0  0  0  0  0  0
   -3.5490   -3.1471    0.0000 F   0  0  0  0  0  0  0  0  0  0  0  0
   -0.9510   -4.6471    0.0000 F   0  0  0  0  0  0  0  0  0  0  0  0
   -1.5000    0.0000    0.0000 C   0  0  0  0  0  0  0  0  0  0  0  0
   -3.0000    0.0000    0.0000 C   0  0  0  0  0  0  0  0  0  0  0  0
   -3.1481    1.2059    0.0000 F   0  0  0  0  0  0  0  0  0  0  0  0
   -3.1481   -1.2059    0.0000 F   0  0  0  0  0  0  0  0  0  0  0  0
   -4.5000    0.0000    0.0000 C   0  0  0  0  0  0  0  0  0  0  0  0
   -6.0000    0.0000    0.0000 F   0  0  0  0  0  0  0  0  0  0  0  0
   -4.5000   -1.5000    0.0000 F   0  0  0  0  0  0  0  0  0  0  0  0
   -4.5000    1.5000    0.0000 F   0  0  0  0  0  0  0  0  0  0  0  0
   -0.7500    1.2990    0.0000 C   0  0  0  0  0  0  0  0  0  0  0  0
   -1.5000    2.5981    0.0000 C   0  0  0  0  0  0  0  0  0  0  0  0
   -0.5297    3.3293    0.0000 F   0  0  0  0  0  0  0  0  0  0  0  0
   -2.6184    2.1234    0.0000 F   0  0  0  0  0  0  0  0  0  0  0  0
   -2.2500    3.8971    0.0000 C   0  0  0  0  0  0  0  0  0  0  0  0
   -3.0000    5.1962    0.0000 F   0  0  0  0  0  0  0  0  0  0  0  0
   -3.5490    3.1471    0.0000 F   0  0  0  0  0  0  0  0  0  0  0  0
   -0.9510    4.6471    0.0000 F   0  0  0  0  0  0  0  0  0  0  0  0
    0.7500    1.2990    0.0000 C   0  0  0  0  0  0  0  0  0  0  0  0
    1.5000    2.5981    0.0000 C   0  0  0  0  0  0  0  0  0  0  0  0
    2.6184    2.1234    0.0000 F   0  0  0  0  0  0  0  0  0  0  0  0
    0.5297    3.3293    0.0000 F   0  0  0  0  0  0  0  0  0  0  0  0
    2.2500    3.8971    0.0000 C   0  0  0  0  0  0  0  0  0  0  0  0
    3.0000    5.1962    0.0000 F   0  0  0  0  0  0  0  0  0  0  0  0
    3.5490    3.1471    0.0000 F   0  0  0  0  0  0  0  0  0  0  0  0
    0.9510    4.6471    0.0000 F   0  0  0  0  0  0  0  0  0  0  0  0
  1  2  1  0
  2  3  1  0
  2  4  1  0
  2  5  1  0
  5  6  1  0
  5  7  1  0
  5  8  1  0
  8  9  2  0
  9 10  1  0
 10 11  1  0
 11 12  1  0
 11 13  1  0
 11 14  1  0
 14 15  1  0
 14 16  1  0
 14 17  1  0
 10 18  2  0
 18 19  1  0
 19 20  1  0
 19 21  1  0
 19 22  1  0
 22 23  1  0
 22 24  1  0
 22 25  1  0
 18 26  1  0
 26 27  1  0
 27 28  1  0
 27 29  1  0
 27 30  1  0
 30 31  1  0
 30 32  1  0
 30 33  1  0
 26 34  2  0
 34 35  1  0
 35 36  1  0
 35 37  1  0
 35 38  1  0
 38 39  1  0
 38 40  1  0
 38 41  1  0
 34  8  1  0
M  END
$$$$

     RDKit          2D

 23 23  0  0  0  0  0  0  0  0999 V2000
    3.0000   -2.5981    0.0000 O   0  0  0  0  0  0  0  0  0  0  0  0
    3.7500   -1.2990    0.0000 C   0  0  0  0  0  0  0  0  0  0  0  0
    5.2500   -1.2990    0.0000 C   0  0  0  0  0  0  0  0  0  0  0  0
    6.0000   -2.5981    0.0000 C   0  0  0  0  0  0  0  0  0  0  0  0
    7.5000   -2.5981    0.0000 C   0  0  0  0  0  0  0  0  0  0  0  0
    8.2500   -3.8971    0.0000 C   0  0  0  0  0  0  0  0  0  0  0  0
    7.5000   -5.1962    0.0000 O   0  0  0  0  0  0  0  0  0  0  0  0
    9.7500   -3.8971    0.0000 O   0  0  0  0  0  0  0  0  0  0  0  0
   10.5000   -5.1962    0.0000 C   0  0  0  0  0  0  0  0  0  0  0  0
   12.0000   -5.1962    0.0000 C   0  0  0  0  0  0  0  0  0  0  0  0
   12.0000   -6.6962    0.0000 F   0  0  0  0  0  0  0  0  0  0  0  0
   12.0000   -3.6962    0.0000 F   0  0  0  0  0  0  0  0  0  0  0  0
   13.5000   -5.1962    0.0000 C   0  0  0  0  0  0  0  0  0  0  0  0
   14.2500   -3.8971    0.0000 F   0  0  0  0  0  0  0  0  0  0  0  0
   14.2500   -6.4952    0.0000 F   0  0  0  0  0  0  0  0  0  0  0  0
    3.0000    0.0000    0.0000 N   0  0  0  0  0  0  0  0  0  0  0  0
    1.5000    0.0000    0.0000 C   0  0  0  0  0  0  0  0  0  0  0  0
    0.7500   -1.2990    0.0000 C   0  0  0  0  0  0  0  0  0  0  0  0
   -0.7500   -1.2990    0.0000 C   0  0  0  0  0  0  0  0  0  0  0  0
   -1.5000    0.0000    0.0000 C   0  0  0  0  0  0  0  0  0  0  0  0
   -3.0000    0.0000    0.0000 I   0  0  0  0  0  0  0  0  0  0  0  0
   -0.7500    1.2990    0.0000 C   0  0  0  0  0  0  0  0  0  0  0  0
    0.7500    1.2990    0.0000 C   0  0  0  0  0  0  0  0  0  0  0  0
  1  2  2  0
  2  3  1  0
  3  4  1  0
  4  5  1  0
  5  6  1  0
  6  7  2  0
  6  8  1  0
  8  9  1  0
  9 10  1  0
 10 11  1  0
 10 12  1  0
 10 13  1  0
 13 14  1  0
 13 15  1  0
  2 16  1  0
 16 17  1  0
 17 18  2  0
 18 19  1  0
 19 20  2  0
 20 21  1  0
 20 22  1  0
 22 23  2  0
 23 17  1  0
M  END
$$$$

     RDKit          2D

 39 40  0  0  0  0  0  0  0  0999 V2000
    0.7500   -1.2990    0.0000 O   0  0  0  0  0  0  0  0  0  0  0  0
    1.5000   -2.5981    0.0000 C   0  0  0  0  0  0  0  0  0  0  0  0
    3.0000   -2.5981    0.0000 C   0  0  0  0  0  0  0  0  0  0  0  0
    3.7500   -1.2990    0.0000 C   0  0  0  0  0  0  0  0  0  0  0  0
    5.2500   -1.2990    0.0000 C   0  0  0  0  0  0  0  0  0  0  0  0
    6.0000   -2.5981    0.0000 C   0  0  0  0  0  0  0  0  0  0  0  0
    5.2500   -3.8971    0.0000 C   0  0  0  0  0  0  0  0  0  0  0  0
    3.7500   -3.8971    0.0000 C   0  0  0  0  0  0  0  0  0  0  0  0
    0.7500   -3.8971    0.0000 N   0  0  0  0  0  0  0  0  0  0  0  0
    1.3601   -5.2674    0.0000 N   0  0  0  0  0  0  0  0  0  0  0  0
    0.2454   -6.2711    0.0000 C   0  0  0  0  0  0  0  0  0  0  0  0
    0.4022   -7.7629    0.0000 C   0  0  0  0  0  0  0  0  0  0  0  0
   -1.0896   -7.9197    0.0000 F   0  0  0  0  0  0  0  0  0  0  0  0
    1.8940   -7.6061    0.0000 F   0  0  0  0  0  0  0  0  0  0  0  0
    0.5590   -9.2547    0.0000 C   0  0  0  0  0  0  0  0  0  0  0  0
    2.0508   -9.0979    0.0000 F   0  0  0  0  0  0  0  0  0  0  0  0
   -0.9328   -9.4115    0.0000 F   0  0  0  0  0  0  0  0  0  0  0  0
    0.7158  -10.7465    0.0000 C   0  0  0  0  0  0  0  0  0  0  0  0
   -0.7760  -10.9033    0.0000 F   0  0  0  0  0  0  0  0  0  0  0  0
    2.2075  -10.5897    0.0000 F   0  0  0  0  0  0  0  0  0  0  0  0
    0.8726  -12.2383    0.0000 C   0  0  0  0  0  0  0  0  0  0  0  0
    1.0294  -13.7300    0.0000 F   0  0  0  0  0  0  0  0  0  0  0  0
    2.3643  -12.0815    0.0000 F   0  0  0  0  0  0  0  0  0  0  0  0
   -0.6192  -12.3951    0.0000 F   0  0  0  0  0  0  0  0  0  0  0  0
   -1.0537   -5.5211    0.0000 C   0  0  0  0  0  0  0  0  0  0  0  0
   -0.7418   -4.0539    0.0000 C   0  0  0  0  0  0  0  0  0  0  0  0
   -1.7455   -2.9392    0.0000 C   0  0  0  0  0  0  0  0  0  0  0  0
   -2.8602   -3.9429    0.0000 F   0  0  0  0  0  0  0  0  0  0  0  0
   -0.6308   -1.9355    0.0000 F   0  0  0  0  0  0  0  0  0  0  0  0
   -2.7492   -1.8245    0.0000 C   0  0  0  0  0  0  0  0  0  0  0  0
   -3.8639   -2.8282    0.0000 F   0  0  0  0  0  0  0  0  0  0  0  0
   -1.6345   -0.8208    0.0000 F   0  0  0  0  0  0  0  0  0  0  0  0
   -3.7529   -0.7098    0.0000 C   0  0  0  0  0  0  0  0  0  0  0  0
   -4.8676   -1.7135    0.0000 F   0  0  0  0  0  0  0  0  0  0  0  0
   -2.6382    0.2939    0.0000 F   0  0  0  0  0  0  0  0  0  0  0  0
   -4.7566    0.4050    0.0000 C   0  0  0  0  0  0  0  0  0  0  0  0
   -5.7603    1.5197    0.0000 F   0  0  0  0  0  0  0  0  0  0  0  0
   -3.6418    1.4087    0.0000 F   0  0  0  0  0  0  0  0  0  0  0  0
   -5.8713   -0.5987    0.0000 F   0  0  0  0  0  0  0  0  0  0  0  0
  1  2  2  0
  2  3  1  0
  3  4  2  0
  4  5  1  0
  5  6  2  0
  6  7  1  0
  7  8  2  0
  2  9  1  0
  9 10  1  0
 10 11  2  0
 11 12  1  0
 12 13  1  0
 12 14  1  0
 12 15  1  0
 15 16  1  0
 15 17  1  0
 15 18  1  0
 18 19  1  0
 18 20  1  0
 18 21  1  0
 21 22  1  0
 21 23  1  0
 21 24  1  0
 11 25  1  0
 25 26  2  0
 26 27  1  0
 27 28  1  0
 27 29  1  0
 27 30  1  0
 30 31  1  0
 30 32  1  0
 30 33  1  0
 33 34  1  0
 33 35  1  0
 33 36  1  0
 36 37  1  0
 36 38  1  0
 36 39  1  0
  8  3  1  0
 26  9  1  0
M  END
$$$$

     RDKit          2D

 39 38  0  0  0  0  0  0  0  0999 V2000
   -1.5000    0.0000    0.0000 F   0  0  0  0  0  0  0  0  0  0  0  0
    0.0000    0.0000    0.0000 C   0  0  0  0  0  0  0  0  0  0  0  0
   -0.1828    1.4888    0.0000 F   0  0  0  0  0  0  0  0  0  0  0  0
   -0.0000   -1.5000    0.0000 F   0  0  0  0  0  0  0  0  0  0  0  0
    1.5000    0.0000    0.0000 C   0  0  0  0  0  0  0  0  0  0  0  0
    1.3354    1.3399    0.0000 F   0  0  0  0  0  0  0  0  0  0  0  0
    1.5000   -1.5000    0.0000 F   0  0  0  0  0  0  0  0  0  0  0  0
    3.0000    0.0000    0.0000 C   0  0  0  0  0  0  0  0  0  0  0  0
    2.8800    0.9768    0.0000 F   0  0  0  0  0  0  0  0  0  0  0  0
    2.8172   -1.4888    0.0000 F   0  0  0  0  0  0  0  0  0  0  0  0
    4.5000    0.0000    0.0000 C   0  0  0  0  0  0  0  0  0  0  0  0
    4.5000    1.5000    0.0000 Hg  0  0  0  0  0  2  0  0  0  0  0  0
    4.5000    3.0000    0.0000 C   0  0  0  0  0  0  0  0  0  0  0  0
    6.0000    3.0000    0.0000 C   0  0  0  0  0  0  0  0  0  0  0  0
    7.5000    3.0000    0.0000 F   0  0  0  0  0  0  0  0  0  0  0  0
    6.1080    3.8791    0.0000 F   0  0  0  0  0  0  0  0  0  0  0  0
    5.8172    1.5112    0.0000 F   0  0  0  0  0  0  0  0  0  0  0  0
    4.5000    4.5000    0.0000 C   0  0  0  0  0  0  0  0  0  0  0  0
    4.5000    6.0000    0.0000 F   0  0  0  0  0  0  0  0  0  0  0  0
    5.3791    4.6080    0.0000 F   0  0  0  0  0  0  0  0  0  0  0  0
    3.6209    4.6080    0.0000 F   0  0  0  0  0  0  0  0  0  0  0  0
    3.0000    3.0000    0.0000 C   0  0  0  0  0  0  0  0  0  0  0  0
    2.8800    2.0232    0.0000 F   0  0  0  0  0  0  0  0  0  0  0  0
    2.8920    3.8791    0.0000 F   0  0  0  0  0  0  0  0  0  0  0  0
    1.5000    3.0000    0.0000 C   0  0  0  0  0  0  0  0  0  0  0  0
    1.5000    4.5000    0.0000 F   0  0  0  0  0  0  0  0  0  0  0  0
    1.3354    1.6601    0.0000 F   0  0  0  0  0  0  0  0  0  0  0  0
    0.0000    3.0000    0.0000 C   0  0  0  0  0  0  0  0  0  0  0  0
   -1.5000    3.0000    0.0000 F   0  0  0  0  0  0  0  0  0  0  0  0
    0.0000    4.5000    0.0000 F   0  0  0  0  0  0  0  0  0  0  0  0
   -0.1828    1.5112    0.0000 F   0  0  0  0  0  0  0  0  0  0  0  0
    6.0000    0.0000    0.0000 C   0  0  0  0  0  0  0  0  0  0  0  0
    7.5000    0.0000    0.0000 F   0  0  0  0  0  0  0  0  0  0  0  0
    5.8172    1.4888    0.0000 F   0  0  0  0  0  0  0  0  0  0  0  0
    6.1828   -1.4888    0.0000 F   0  0  0  0  0  0  0  0  0  0  0  0
    4.5000   -1.5000    0.0000 C   0  0  0  0  0  0  0  0  0  0  0  0
    4.5000   -3.0000    0.0000 F   0  0  0  0  0  0  0  0  0  0  0  0
    5.9888   -1.6828    0.0000 F   0  0  0  0  0  0  0  0  0  0  0  0
    3.0112   -1.6828    0.0000 F   0  0  0  0  0  0  0  0  0  0  0  0
  1  2  1  0
  2  3  1  0
  2  4  1  0
  2  5  1  0
  5  6  1  0
  5  7  1  0
  5  8  1  0
  8  9  1  0
  8 10  1  0
  8 11  1  0
 11 12  1  0
 12 13  1  0
 13 14  1  0
 14 15  1  0
 14 16  1  0
 14 17  1  0
 13 18  1  0
 18 19  1  0
 18 20  1  0
 18 21  1  0
 13 22  1  0
 22 23  1  0
 22 24  1  0
 22 25  1  0
 25 26  1  0
 25 27  1  0
 25 28  1  0
 28 29  1  0
 28 30  1  0
 28 31  1  0
 11 32  1  0
 32 33  1  0
 32 34  1  0
 32 35  1  0
 11 36  1  0
 36 37  1  0
 36 38  1  0
 36 39  1  0
M  END
$$$$

     RDKit          2D

 11 10  0  0  0  0  0  0  0  0999 V2000
   -1.5000    0.0000    0.0000 F   0  0  0  0  0  0  0  0  0  0  0  0
    0.0000    0.0000    0.0000 C   0  0  0  0  0  0  0  0  0  0  0  0
    0.0000    1.5000    0.0000 F   0  0  0  0  0  0  0  0  0  0  0  0
   -0.0000   -1.5000    0.0000 F   0  0  0  0  0  0  0  0  0  0  0  0
    1.5000    0.0000    0.0000 C   0  0  0  0  0  0  0  0  0  0  0  0
    1.5000   -1.5000    0.0000 F   0  0  0  0  0  0  0  0  0  0  0  0
    1.5000    1.5000    0.0000 Br  0  0  0  0  0  0  0  0  0  0  0  0
    3.0000    0.0000    0.0000 C   0  0  0  0  0  0  0  0  0  0  0  0
    4.5000    0.0000    0.0000 F   0  0  0  0  0  0  0  0  0  0  0  0
    3.0000    1.5000    0.0000 F   0  0  0  0  0  0  0  0  0  0  0  0
    3.0000   -1.5000    0.0000 F   0  0  0  0  0  0  0  0  0  0  0  0
  1  2  1  0
  2  3  1  0
  2  4  1  0
  2  5  1  0
  5  6  1  0
  5  7  1  0
  5  8  1  0
  8  9  1  0
  8 10  1  0
  8 11  1  0
M  END
$$$$

     RDKit          2D

 22 21  0  0  0  0  0  0  0  0999 V2000
    0.0000    0.0000    0.0000 C   0  0  0  0  0  0  0  0  0  0  0  0
    1.2990    0.7500    0.0000 C   0  0  0  0  0  0  0  0  0  0  0  0
    1.2990    2.2500    0.0000 Br  0  0  0  0  0  0  0  0  0  0  0  0
    2.5981   -0.0000    0.0000 C   0  0  0  0  0  0  0  0  0  0  0  0
    1.8481   -1.2990    0.0000 F   0  0  0  0  0  0  0  0  0  0  0  0
    3.3481    1.2990    0.0000 F   0  0  0  0  0  0  0  0  0  0  0  0
    3.8971   -0.7500    0.0000 C   0  0  0  0  0  0  0  0  0  0  0  0
    4.6471    0.5490    0.0000 F   0  0  0  0  0  0  0  0  0  0  0  0
    3.1471   -2.0490    0.0000 F   0  0  0  0  0  0  0  0  0  0  0  0
    5.1962   -1.5000    0.0000 C   0  0  0  0  0  0  0  0  0  0  0  0
    4.4462   -2.7990    0.0000 F   0  0  0  0  0  0  0  0  0  0  0  0
    5.9462   -0.2010    0.0000 F   0  0  0  0  0  0  0  0  0  0  0  0
    6.4952   -2.2500    0.0000 C   0  0  0  0  0  0  0  0  0  0  0  0
    5.7452   -3.5490    0.0000 F   0  0  0  0  0  0  0  0  0  0  0  0
    7.2452   -0.9510    0.0000 F   0  0  0  0  0  0  0  0  0  0  0  0
    7.7942   -3.0000    0.0000 C   0  0  0  0  0  0  0  0  0  0  0  0
    8.5442   -1.7010    0.0000 F   0  0  0  0  0  0  0  0  0  0  0  0
    7.0442   -4.2990    0.0000 F   0  0  0  0  0  0  0  0  0  0  0  0
    9.0933   -3.7500    0.0000 C   0  0  0  0  0  0  0  0  0  0  0  0
   10.3923   -4.5000    0.0000 F   0  0  0  0  0  0  0  0  0  0  0  0
    8.3433   -5.0490    0.0000 F   0  0  0  0  0  0  0  0  0  0  0  0
    9.8433   -2.4510    0.0000 F   0  0  0  0  0  0  0  0  0  0  0  0
  1  2  2  0
  2  3  1  0
  2  4  1  0
  4  5  1  0
  4  6  1  0
  4  7  1  0
  7  8  1  0
  7  9  1  0
  7 10  1  0
 10 11  1  0
 10 12  1  0
 10 13  1  0
 13 14  1  0
 13 15  1  0
 13 16  1  0
 16 17  1  0
 16 18  1  0
 16 19  1  0
 19 20  1  0
 19 21  1  0
 19 22  1  0
M  END
$$$$

     RDKit          2D

 10  9  0  0  0  0  0  0  0  0999 V2000
   -1.2990    0.7500    0.0000 O   0  0  0  0  0  0  0  0  0  0  0  0
    0.0000    0.0000    0.0000 C   0  0  0  0  0  0  0  0  0  0  0  0
   -0.0000   -1.5000    0.0000 F   0  0  0  0  0  0  0  0  0  0  0  0
    1.2990    0.7500    0.0000 C   0  0  0  0  0  0  0  0  0  0  0  0
    2.0490   -0.5490    0.0000 F   0  0  0  0  0  0  0  0  0  0  0  0
    0.5490    2.0490    0.0000 Br  0  0  0  0  0  0  0  0  0  0  0  0
    2.5981    1.5000    0.0000 C   0  0  0  0  0  0  0  0  0  0  0  0
    3.8971    2.2500    0.0000 F   0  0  0  0  0  0  0  0  0  0  0  0
    1.8481    2.7990    0.0000 F   0  0  0  0  0  0  0  0  0  0  0  0
    3.3481    0.2010    0.0000 F   0  0  0  0  0  0  0  0  0  0  0  0
  1  2  2  0
  2  3  1  0
  2  4  1  0
  4  5  1  0
  4  6  1  0
  4  7  1  0
  7  8  1  0
  7  9  1  0
  7 10  1  0
M  END
$$$$

     RDKit          2D

 17 17  0  0  0  0  0  0  0  0999 V2000
    2.7760    0.0000    0.0000 C   0  0  0  0  0  0  0  0  0  0  0  0
    1.2760    0.0000    0.0000 C   0  0  0  0  0  0  0  0  0  0  0  0
    0.3943    1.2135    0.0000 N   0  0  0  0  0  0  0  0  0  0  0  0
   -1.0323    0.7500    0.0000 N   0  0  0  0  0  0  0  0  0  0  0  0
   -1.0323   -0.7500    0.0000 C   0  0  0  0  0  0  0  0  0  0  0  0
   -2.2458   -1.6317    0.0000 C   0  0  0  0  0  0  0  0  0  0  0  0
   -3.1275   -0.4182    0.0000 F   0  0  0  0  0  0  0  0  0  0  0  0
   -1.3641   -2.8452    0.0000 F   0  0  0  0  0  0  0  0  0  0  0  0
   -3.4593   -2.5134    0.0000 C   0  0  0  0  0  0  0  0  0  0  0  0
   -2.5777   -3.7269    0.0000 F   0  0  0  0  0  0  0  0  0  0  0  0
   -4.3410   -1.2998    0.0000 F   0  0  0  0  0  0  0  0  0  0  0  0
   -4.6729   -3.3950    0.0000 C   0  0  0  0  0  0  0  0  0  0  0  0
   -5.8864   -4.2767    0.0000 F   0  0  0  0  0  0  0  0  0  0  0  0
   -5.5545   -2.1815    0.0000 F   0  0  0  0  0  0  0  0  0  0  0  0
   -3.7912   -4.6086    0.0000 F   0  0  0  0  0  0  0  0  0  0  0  0
    0.3943   -1.2135    0.0000 C   0  0  0  0  0  0  0  0  0  0  0  0
    0.8578   -2.6401    0.0000 Cl  0  0  0  0  0  0  0  0  0  0  0  0
  1  2  1  0
  2  3  1  0
  3  4  1  0
  4  5  2  0
  5  6  1  0
  6  7  1  0
  6  8  1  0
  6  9  1  0
  9 10  1  0
  9 11  1  0
  9 12  1  0
 12 13  1  0
 12 14  1  0
 12 15  1  0
  5 16  1  0
 16 17  1  0
 16  2  2  0
M  END
$$$$

     RDKit          2D

 26 25  0  0  0  0  0  0  0  0999 V2000
   -1.5000    0.0000    0.0000 F   0  0  0  0  0  0  0  0  0  0  0  0
    0.0000    0.0000    0.0000 C   0  0  0  0  0  0  0  0  0  0  0  0
    0.0000    1.5000    0.0000 F   0  0  0  0  0  0  0  0  0  0  0  0
   -0.0000   -1.5000    0.0000 Cl  0  0  0  0  0  0  0  0  0  0  0  0
    1.5000    0.0000    0.0000 C   0  0  0  0  0  0  0  0  0  0  0  0
    1.5000    1.5000    0.0000 F   0  0  0  0  0  0  0  0  0  0  0  0
    1.5000   -1.5000    0.0000 F   0  0  0  0  0  0  0  0  0  0  0  0
    3.0000    0.0000    0.0000 C   0  0  0  0  0  0  0  0  0  0  0  0
    3.0000   -1.5000    0.0000 F   0  0  0  0  0  0  0  0  0  0  0  0
    3.0000    1.5000    0.0000 F   0  0  0  0  0  0  0  0  0  0  0  0
    4.5000    0.0000    0.0000 C   0  0  0  0  0  0  0  0  0  0  0  0
    4.5000    1.5000    0.0000 F   0  0  0  0  0  0  0  0  0  0  0  0
    4.5000   -1.5000    0.0000 F   0  0  0  0  0  0  0  0  0  0  0  0
    6.0000    0.0000    0.0000 C   0  0  0  0  0  0  0  0  0  0  0  0
    6.0000    1.5000    0.0000 F   0  0  0  0  0  0  0  0  0  0  0  0
    6.0000   -1.5000    0.0000 F   0  0  0  0  0  0  0  0  0  0  0  0
    7.5000    0.0000    0.0000 C   0  0  0  0  0  0  0  0  0  0  0  0
    7.5000   -1.5000    0.0000 F   0  0  0  0  0  0  0  0  0  0  0  0
    7.5000    1.5000    0.0000 F   0  0  0  0  0  0  0  0  0  0  0  0
    9.0000    0.0000    0.0000 C   0  0  0  0  0  0  0  0  0  0  0  0
    9.0000    1.5000    0.0000 F   0  0  0  0  0  0  0  0  0  0  0  0
    9.0000   -1.5000    0.0000 F   0  0  0  0  0  0  0  0  0  0  0  0
   10.5000    0.0000    0.0000 C   0  0  0  0  0  0  0  0  0  0  0  0
   12.0000    0.0000    0.0000 F   0  0  0  0  0  0  0  0  0  0  0  0
   10.5000   -1.5000    0.0000 F   0  0  0  0  0  0  0  0  0  0  0  0
   10.5000    1.5000    0.0000 I   0  0  0  0  0  0  0  0  0  0  0  0
  1  2  1  0
  2  3  1  0
  2  4  1  0
  2  5  1  0
  5  6  1  0
  5  7  1  0
  5  8  1  0
  8  9  1  0
  8 10  1  0
  8 11  1  0
 11 12  1  0
 11 13  1  0
 11 14  1  0
 14 15  1  0
 14 16  1  0
 14 17  1  0
 17 18  1  0
 17 19  1  0
 17 20  1  0
 20 21  1  0
 20 22  1  0
 20 23  1  0
 23 24  1  0
 23 25  1  0
 23 26  1  0
M  END
$$$$

     RDKit          2D

 39 38  0  0  0  0  0  0  0  0999 V2000
    0.0000    0.0000    0.0000 C   0  0  0  0  0  0  0  0  0  0  0  0
    1.2990    0.7500    0.0000 C   0  0  0  0  0  0  0  0  0  0  0  0
    2.5981   -0.0000    0.0000 O   0  0  0  0  0  0  0  0  0  0  0  0
    3.8971    0.7500    0.0000 C   0  0  0  0  0  0  0  0  0  0  0  0
    3.8971    2.2500    0.0000 O   0  0  0  0  0  0  0  0  0  0  0  0
    5.1962   -0.0000    0.0000 C   0  0  0  0  0  0  0  0  0  0  0  0
    5.9462    1.2990    0.0000 F   0  0  0  0  0  0  0  0  0  0  0  0
    4.4462   -1.2990    0.0000 F   0  0  0  0  0  0  0  0  0  0  0  0
    6.4952   -0.7500    0.0000 C   0  0  0  0  0  0  0  0  0  0  0  0
    5.7452   -2.0490    0.0000 F   0  0  0  0  0  0  0  0  0  0  0  0
    7.2452    0.5490    0.0000 F   0  0  0  0  0  0  0  0  0  0  0  0
    7.7942   -1.5000    0.0000 C   0  0  0  0  0  0  0  0  0  0  0  0
    8.5442   -0.2010    0.0000 F   0  0  0  0  0  0  0  0  0  0  0  0
    7.0442   -2.7990    0.0000 F   0  0  0  0  0  0  0  0  0  0  0  0
    9.0933   -2.2500    0.0000 C   0  0  0  0  0  0  0  0  0  0  0  0
    8.3433   -3.5490    0.0000 F   0  0  0  0  0  0  0  0  0  0  0  0
    9.8433   -0.9510    0.0000 F   0  0  0  0  0  0  0  0  0  0  0  0
   10.3923   -3.0000    0.0000 C   0  0  0  0  0  0  0  0  0  0  0  0
   11.1423   -1.7010    0.0000 F   0  0  0  0  0  0  0  0  0  0  0  0
    9.6423   -4.2990    0.0000 F   0  0  0  0  0  0  0  0  0  0  0  0
   11.6913   -3.7500    0.0000 C   0  0  0  0  0  0  0  0  0  0  0  0
   10.9413   -5.0490    0.0000 F   0  0  0  0  0  0  0  0  0  0  0  0
   12.4413   -2.4510    0.0000 F   0  0  0  0  0  0  0  0  0  0  0  0
   12.9904   -4.5000    0.0000 C   0  0  0  0  0  0  0  0  0  0  0  0
   13.7404   -3.2010    0.0000 F   0  0  0  0  0  0  0  0  0  0  0  0
   12.2404   -5.7990    0.0000 F   0  0  0  0  0  0  0  0  0  0  0  0
   14.2894   -5.2500    0.0000 C   0  0  0  0  0  0  0  0  0  0  0  0
   13.5394   -6.5490    0.0000 F   0  0  0  0  0  0  0  0  0  0  0  0
   15.0394   -3.9510    0.0000 F   0  0  0  0  0  0  0  0  0  0  0  0
   15.5885   -6.0000    0.0000 C   0  0  0  0  0  0  0  0  0  0  0  0
   16.3385   -4.7010    0.0000 F   0  0  0  0  0  0  0  0  0  0  0  0
   14.8385   -7.2990    0.0000 F   0  0  0  0  0  0  0  0  0  0  0  0
   16.8875   -6.7500    0.0000 C   0  0  0  0  0  0  0  0  0  0  0  0
   16.1375   -8.0490    0.0000 F   0  0  0  0  0  0  0  0  0  0  0  0
   17.6375   -5.4510    0.0000 F   0  0  0  0  0  0  0  0  0  0  0  0
   18.1865   -7.5000    0.0000 C   0  0  0  0  0  0  0  0  0  0  0  0
   19.4856   -8.2500    0.0000 F   0  0  0  0  0  0  0  0  0  0  0  0
   18.9365   -6.2010    0.0000 F   0  0  0  0  0  0  0  0  0  0  0  0
   17.4365   -8.7990    0.0000 F   0  0  0  0  0  0  0  0  0  0  0  0
  1  2  1  0
  2  3  1  0
  3  4  1  0
  4  5  2  0
  4  6  1  0
  6  7  1  0
  6  8  1  0
  6  9  1  0
  9 10  1  0
  9 11  1  0
  9 12  1  0
 12 13  1  0
 12 14  1  0
 12 15  1  0
 15 16  1  0
 15 17  1  0
 15 18  1  0
 18 19  1  0
 18 20  1  0
 18 21  1  0
 21 22  1  0
 21 23  1  0
 21 24  1  0
 24 25  1  0
 24 26  1  0
 24 27  1  0
 27 28  1  0
 27 29  1  0
 27 30  1  0
 30 31  1  0
 30 32  1  0
 30 33  1  0
 33 34  1  0
 33 35  1  0
 33 36  1  0
 36 37  1  0
 36 38  1  0
 36 39  1  0
M  END
$$$$

     RDKit          2D

 17 16  0  0  0  0  0  0  0  0999 V2000
    0.0000    0.0000    0.0000 C   0  0  0  0  0  0  0  0  0  0  0  0
    1.2990    0.7500    0.0000 C   0  0  0  0  0  0  0  0  0  0  0  0
    2.5981   -0.0000    0.0000 O   0  0  0  0  0  0  0  0  0  0  0  0
    3.8971    0.7500    0.0000 C   0  0  0  0  0  0  0  0  0  0  0  0
    3.8971    2.2500    0.0000 O   0  0  0  0  0  0  0  0  0  0  0  0
    5.1962   -0.0000    0.0000 C   0  0  0  0  0  0  0  0  0  0  0  0
    5.9462    1.2990    0.0000 F   0  0  0  0  0  0  0  0  0  0  0  0
    4.4462   -1.2990    0.0000 F   0  0  0  0  0  0  0  0  0  0  0  0
    6.4952   -0.7500    0.0000 C   0  0  0  0  0  0  0  0  0  0  0  0
    5.7452   -2.0490    0.0000 F   0  0  0  0  0  0  0  0  0  0  0  0
    7.2452    0.5490    0.0000 F   0  0  0  0  0  0  0  0  0  0  0  0
    7.7942   -1.5000    0.0000 C   0  0  0  0  0  0  0  0  0  0  0  0
    7.0442   -2.7990    0.0000 F   0  0  0  0  0  0  0  0  0  0  0  0
    8.5442   -0.2010    0.0000 F   0  0  0  0  0  0  0  0  0  0  0  0
    9.0933   -2.2500    0.0000 C   0  0  0  0  0  0  0  0  0  0  0  0
    9.0933   -3.7500    0.0000 F   0  0  0  0  0  0  0  0  0  0  0  0
   10.3923   -1.5000    0.0000 F   0  0  0  0  0  0  0  0  0  0  0  0
  1  2  1  0
  2  3  1  0
  3  4  1  0
  4  5  2  0
  4  6  1  0
  6  7  1  0
  6  8  1  0
  6  9  1  0
  9 10  1  0
  9 11  1  0
  9 12  1  0
 12 13  1  0
 12 14  1  0
 12 15  1  0
 15 16  1  0
 15 17  1  0
M  END
$$$$

     RDKit          2D

 15 14  0  0  0  0  0  0  0  0999 V2000
    0.0000    0.0000    0.0000 C   0  0  0  0  0  0  0  0  0  0  0  0
    1.2990    0.7500    0.0000 C   0  0  0  0  0  0  0  0  0  0  0  0
    2.5981   -0.0000    0.0000 C   0  0  0  0  0  0  0  0  0  0  0  0
    3.8971    0.7500    0.0000 O   0  0  0  0  0  0  0  0  0  0  0  0
    5.1962   -0.0000    0.0000 C   0  0  0  0  0  0  0  0  0  0  0  0
    6.4952    0.7500    0.0000 C   0  0  0  0  0  0  0  0  0  0  0  0
    7.2452   -0.5490    0.0000 F   0  0  0  0  0  0  0  0  0  0  0  0
    5.7452    2.0490    0.0000 F   0  0  0  0  0  0  0  0  0  0  0  0
    7.7942    1.5000    0.0000 C   0  0  0  0  0  0  0  0  0  0  0  0
    7.0442    2.7990    0.0000 F   0  0  0  0  0  0  0  0  0  0  0  0
    8.5442    0.2010    0.0000 F   0  0  0  0  0  0  0  0  0  0  0  0
    9.0933    2.2500    0.0000 C   0  0  0  0  0  0  0  0  0  0  0  0
   10.3923    3.0000    0.0000 F   0  0  0  0  0  0  0  0  0  0  0  0
    9.8433    0.9510    0.0000 F   0  0  0  0  0  0  0  0  0  0  0  0
    8.3433    3.5490    0.0000 F   0  0  0  0  0  0  0  0  0  0  0  0
  1  2  2  0
  2  3  1  0
  3  4  1  0
  4  5  1  0
  5  6  1  0
  6  7  1  0
  6  8  1  0
  6  9  1  0
  9 10  1  0
  9 11  1  0
  9 12  1  0
 12 13  1  0
 12 14  1  0
 12 15  1  0
M  END
$$$$

     RDKit          2D

 27 27  0  0  0  0  0  0  0  0999 V2000
    3.0000    1.5000    0.0000 O   0  0  0  0  0  0  0  0  0  0  0  0
    3.0000    0.0000    0.0000 C   0  0  0  0  0  0  0  0  0  0  0  0
    1.5000    0.0000    0.0000 C   0  0  0  0  0  0  0  0  0  0  0  0
    0.7500   -1.2990    0.0000 C   0  0  0  0  0  0  0  0  0  0  0  0
   -0.7500   -1.2990    0.0000 C   0  0  0  0  0  0  0  0  0  0  0  0
   -1.5000   -2.5981    0.0000 I   0  0  0  0  0  0  0  0  0  0  0  0
   -1.5000    0.0000    0.0000 C   0  0  0  0  0  0  0  0  0  0  0  0
   -0.7500    1.2990    0.0000 C   0  0  0  0  0  0  0  0  0  0  0  0
   -1.5000    2.5981    0.0000 C   0  0  0  0  0  0  0  0  0  0  0  0
   -2.7990    1.8481    0.0000 O   0  0  0  0  0  0  0  0  0  0  0  0
   -2.2500    3.8971    0.0000 C   0  0  0  0  0  0  0  0  0  0  0  0
   -3.0000    5.1962    0.0000 F   0  0  0  0  0  0  0  0  0  0  0  0
   -3.5490    3.1471    0.0000 F   0  0  0  0  0  0  0  0  0  0  0  0
   -1.5426    4.4302    0.0000 F   0  0  0  0  0  0  0  0  0  0  0  0
   -0.2010    3.3481    0.0000 C   0  0  0  0  0  0  0  0  0  0  0  0
    1.0981    4.0981    0.0000 F   0  0  0  0  0  0  0  0  0  0  0  0
   -0.5470    4.1634    0.0000 F   0  0  0  0  0  0  0  0  0  0  0  0
    0.8411    2.2691    0.0000 F   0  0  0  0  0  0  0  0  0  0  0  0
    0.7500    1.2990    0.0000 C   0  0  0  0  0  0  0  0  0  0  0  0
    4.5000    0.0000    0.0000 C   0  0  0  0  0  0  0  0  0  0  0  0
    6.0000    0.0000    0.0000 F   0  0  0  0  0  0  0  0  0  0  0  0
    4.5000    1.5000    0.0000 F   0  0  0  0  0  0  0  0  0  0  0  0
    4.6080   -0.8791    0.0000 F   0  0  0  0  0  0  0  0  0  0  0  0
    3.0000   -1.5000    0.0000 C   0  0  0  0  0  0  0  0  0  0  0  0
    3.0000   -3.0000    0.0000 F   0  0  0  0  0  0  0  0  0  0  0  0
    3.8791   -1.6080    0.0000 F   0  0  0  0  0  0  0  0  0  0  0  0
    1.5446   -1.8630    0.0000 F   0  0  0  0  0  0  0  0  0  0  0  0
  1  2  1  0
  2  3  1  0
  3  4  2  0
  4  5  1  0
  5  6  1  0
  5  7  2  0
  7  8  1  0
  8  9  1  0
  9 10  1  0
  9 11  1  0
 11 12  1  0
 11 13  1  0
 11 14  1  0
  9 15  1  0
 15 16  1  0
 15 17  1  0
 15 18  1  0
  8 19  2  0
  2 20  1  0
 20 21  1  0
 20 22  1  0
 20 23  1  0
  2 24  1  0
 24 25  1  0
 24 26  1  0
 24 27  1  0
 19  3  1  0
M  END
$$$$

     RDKit          2D

 20 19  0  0  0  0  0  0  0  0999 V2000
   -0.0000   -1.5000    0.0000 O   0  0  0  0  0  0  0  0  0  0  0  0
    0.0000    0.0000    0.0000 C   0  0  0  0  0  0  0  0  0  0  0  0
   -1.2990    0.7500    0.0000 O   0  0  0  0  0  0  0  0  0  0  0  0
    1.2990    0.7500    0.0000 C   0  0  0  0  0  0  0  0  0  0  0  0
    2.0490   -0.5490    0.0000 F   0  0  0  0  0  0  0  0  0  0  0  0
    0.5490    2.0490    0.0000 F   0  0  0  0  0  0  0  0  0  0  0  0
    2.5981    1.5000    0.0000 O   0  0  0  0  0  0  0  0  0  0  0  0
    2.5981    3.0000    0.0000 C   0  0  0  0  0  0  0  0  0  0  0  0
    1.0981    3.0000    0.0000 F   0  0  0  0  0  0  0  0  0  0  0  0
    4.0981    3.0000    0.0000 F   0  0  0  0  0  0  0  0  0  0  0  0
    2.5981    4.5000    0.0000 C   0  0  0  0  0  0  0  0  0  0  0  0
    1.0981    4.5000    0.0000 F   0  0  0  0  0  0  0  0  0  0  0  0
    4.0981    4.5000    0.0000 F   0  0  0  0  0  0  0  0  0  0  0  0
    2.5981    6.0000    0.0000 O   0  0  0  0  0  0  0  0  0  0  0  0
    3.8971    6.7500    0.0000 C   0  0  0  0  0  0  0  0  0  0  0  0
    4.6471    5.4510    0.0000 F   0  0  0  0  0  0  0  0  0  0  0  0
    3.1471    8.0490    0.0000 F   0  0  0  0  0  0  0  0  0  0  0  0
    5.1962    7.5000    0.0000 C   0  0  0  0  0  0  0  0  0  0  0  0
    5.1962    9.0000    0.0000 O   0  0  0  0  0  0  0  0  0  0  0  0
    6.4952    6.7500    0.0000 O   0  0  0  0  0  0  0  0  0  0  0  0
  1  2  2  0
  2  3  1  0
  2  4  1  0
  4  5  1  0
  4  6  1  0
  4  7  1  0
  7  8  1  0
  8  9  1  0
  8 10  1  0
  8 11  1  0
 11 12  1  0
 11 13  1  0
 11 14  1  0
 14 15  1  0
 15 16  1  0
 15 17  1  0
 15 18  1  0
 18 19  2  0
 18 20  1  0
M  END
$$$$

     RDKit          2D

 13 12  0  0  0  0  0  0  0  0999 V2000
    0.0000    0.0000    0.0000 C   0  0  0  0  0  0  0  0  0  0  0  0
    1.2990    0.7500    0.0000 C   0  0  0  0  0  0  0  0  0  0  0  0
    1.2990    2.2500    0.0000 O   0  0  0  0  0  0  0  0  0  0  0  0
    2.5981   -0.0000    0.0000 C   0  0  0  0  0  0  0  0  0  0  0  0
    3.8971    0.7500    0.0000 C   0  0  0  0  0  0  0  0  0  0  0  0
    3.8971    2.2500    0.0000 O   0  0  0  0  0  0  0  0  0  0  0  0
    5.1962   -0.0000    0.0000 C   0  0  0  0  0  0  0  0  0  0  0  0
    5.9462    1.2990    0.0000 F   0  0  0  0  0  0  0  0  0  0  0  0
    4.4462   -1.2990    0.0000 F   0  0  0  0  0  0  0  0  0  0  0  0
    6.4952   -0.7500    0.0000 C   0  0  0  0  0  0  0  0  0  0  0  0
    7.7942   -1.5000    0.0000 F   0  0  0  0  0  0  0  0  0  0  0  0
    5.7452   -2.0490    0.0000 F   0  0  0  0  0  0  0  0  0  0  0  0
    7.2452    0.5490    0.0000 F   0  0  0  0  0  0  0  0  0  0  0  0
  1  2  1  0
  2  3  2  0
  2  4  1  0
  4  5  1  0
  5  6  2  0
  5  7  1  0
  7  8  1  0
  7  9  1  0
  7 10  1  0
 10 11  1  0
 10 12  1  0
 10 13  1  0
M  END
$$$$

     RDKit          2D

 22 21  0  0  0  0  0  0  0  0999 V2000
   -1.2990    0.7500    0.0000 N   0  0  0  0  0  0  0  0  0  0  0  0
    0.0000    0.0000    0.0000 C   0  0  0  0  0  0  0  0  0  0  0  0
   -0.0000   -1.5000    0.0000 O   0  0  0  0  0  0  0  0  0  0  0  0
    1.2990    0.7500    0.0000 C   0  0  0  0  0  0  0  0  0  0  0  0
    2.0490   -0.5490    0.0000 F   0  0  0  0  0  0  0  0  0  0  0  0
    0.5490    2.0490    0.0000 F   0  0  0  0  0  0  0  0  0  0  0  0
    2.5981    1.5000    0.0000 C   0  0  0  0  0  0  0  0  0  0  0  0
    1.8481    2.7990    0.0000 F   0  0  0  0  0  0  0  0  0  0  0  0
    3.3481    0.2010    0.0000 F   0  0  0  0  0  0  0  0  0  0  0  0
    3.8971    2.2500    0.0000 C   0  0  0  0  0  0  0  0  0  0  0  0
    4.6471    0.9510    0.0000 F   0  0  0  0  0  0  0  0  0  0  0  0
    3.1471    3.5490    0.0000 F   0  0  0  0  0  0  0  0  0  0  0  0
    5.1962    3.0000    0.0000 C   0  0  0  0  0  0  0  0  0  0  0  0
    4.4462    4.2990    0.0000 F   0  0  0  0  0  0  0  0  0  0  0  0
    5.9462    1.7010    0.0000 F   0  0  0  0  0  0  0  0  0  0  0  0
    6.4952    3.7500    0.0000 C   0  0  0  0  0  0  0  0  0  0  0  0
    7.2452    2.4510    0.0000 F   0  0  0  0  0  0  0  0  0  0  0  0
    5.7452    5.0490    0.0000 F   0  0  0  0  0  0  0  0  0  0  0  0
    7.7942    4.5000    0.0000 C   0  0  0  0  0  0  0  0  0  0  0  0
    9.0933    5.2500    0.0000 F   0  0  0  0  0  0  0  0  0  0  0  0
    7.0442    5.7990    0.0000 F   0  0  0  0  0  0  0  0  0  0  0  0
    8.5442    3.2010    0.0000 F   0  0  0  0  0  0  0  0  0  0  0  0
  1  2  1  0
  2  3  2  0
  2  4  1  0
  4  5  1  0
  4  6  1  0
  4  7  1  0
  7  8  1  0
  7  9  1  0
  7 10  1  0
 10 11  1  0
 10 12  1  0
 10 13  1  0
 13 14  1  0
 13 15  1  0
 13 16  1  0
 16 17  1  0
 16 18  1  0
 16 19  1  0
 19 20  1  0
 19 21  1  0
 19 22  1  0
M  END
$$$$

     RDKit          2D

 15 14  0  0  0  0  0  0  0  0999 V2000
    0.0000    0.0000    0.0000 C   0  0  0  0  0  0  0  0  0  0  0  0
    1.2990    0.7500    0.0000 C   0  0  0  0  0  0  0  0  0  0  0  0
    2.5981    1.5000    0.0000 C   0  0  0  0  0  0  0  0  0  0  0  0
    2.0490   -0.5490    0.0000 C   0  0  0  0  0  0  0  0  0  0  0  0
    0.5490    2.0490    0.0000 C   0  0  0  0  0  0  0  0  0  0  0  0
   -0.9510    2.0490    0.0000 O   0  0  0  0  0  0  0  0  0  0  0  0
    1.2990    3.3481    0.0000 C   0  0  0  0  0  0  0  0  0  0  0  0
    0.5490    4.6471    0.0000 C   0  0  0  0  0  0  0  0  0  0  0  0
   -0.9510    4.6471    0.0000 O   0  0  0  0  0  0  0  0  0  0  0  0
    1.2990    5.9462    0.0000 C   0  0  0  0  0  0  0  0  0  0  0  0
    0.0000    6.6962    0.0000 F   0  0  0  0  0  0  0  0  0  0  0  0
    2.5981    5.1962    0.0000 F   0  0  0  0  0  0  0  0  0  0  0  0
    2.0490    7.2452    0.0000 C   0  0  0  0  0  0  0  0  0  0  0  0
    3.5490    7.2452    0.0000 F   0  0  0  0  0  0  0  0  0  0  0  0
    1.2990    8.5442    0.0000 F   0  0  0  0  0  0  0  0  0  0  0  0
  1  2  1  0
  2  3  1  0
  2  4  1  0
  2  5  1  0
  5  6  2  0
  5  7  1  0
  7  8  1  0
  8  9  2  0
  8 10  1  0
 10 11  1  0
 10 12  1  0
 10 13  1  0
 13 14  1  0
 13 15  1  0
M  END
$$$$

     RDKit          2D

 26 27  0  0  0  0  0  0  0  0999 V2000
    4.5000    0.0000    0.0000 F   0  0  0  0  0  0  0  0  0  0  0  0
    3.0000    0.0000    0.0000 C   0  0  0  0  0  0  0  0  0  0  0  0
    3.0000   -1.5000    0.0000 F   0  0  0  0  0  0  0  0  0  0  0  0
    3.0000    1.5000    0.0000 F   0  0  0  0  0  0  0  0  0  0  0  0
    1.5000    0.0000    0.0000 C   0  0  0  0  0  0  0  0  0  0  0  0
    0.7500   -1.2990    0.0000 C   0  0  0  0  0  0  0  0  0  0  0  0
   -0.7500   -1.2990    0.0000 C   0  0  0  0  0  0  0  0  0  0  0  0
   -1.5000    0.0000    0.0000 C   0  0  0  0  0  0  0  0  0  0  0  0
   -0.7500    1.2990    0.0000 C   0  0  0  0  0  0  0  0  0  0  0  0
   -1.5000    2.5981    0.0000 C   0  0  0  0  0  0  0  0  0  0  0  0
   -0.2010    3.3481    0.0000 F   0  0  0  0  0  0  0  0  0  0  0  0
   -2.7990    1.8481    0.0000 F   0  0  0  0  0  0  0  0  0  0  0  0
   -2.2500    3.8971    0.0000 C   0  0  0  0  0  0  0  0  0  0  0  0
   -0.9510    4.6471    0.0000 F   0  0  0  0  0  0  0  0  0  0  0  0
   -3.5490    3.1471    0.0000 F   0  0  0  0  0  0  0  0  0  0  0  0
   -3.0000    5.1962    0.0000 C   0  0  0  0  0  0  0  0  0  0  0  0
   -2.2500    6.4952    0.0000 C   0  0  0  0  0  0  0  0  0  0  0  0
   -3.0000    7.7942    0.0000 C   0  0  0  0  0  0  0  0  0  0  0  0
   -4.5000    7.7942    0.0000 C   0  0  0  0  0  0  0  0  0  0  0  0
   -5.2500    6.4952    0.0000 C   0  0  0  0  0  0  0  0  0  0  0  0
   -6.7500    6.4952    0.0000 C   0  0  0  0  0  0  0  0  0  0  0  0
   -8.2500    6.4952    0.0000 F   0  0  0  0  0  0  0  0  0  0  0  0
   -6.7500    7.9952    0.0000 F   0  0  0  0  0  0  0  0  0  0  0  0
   -6.7500    4.9952    0.0000 F   0  0  0  0  0  0  0  0  0  0  0  0
   -4.5000    5.1962    0.0000 C   0  0  0  0  0  0  0  0  0  0  0  0
    0.7500    1.2990    0.0000 C   0  0  0  0  0  0  0  0  0  0  0  0
  1  2  1  0
  2  3  1  0
  2  4  1  0
  2  5  1  0
  5  6  2  0
  6  7  1  0
  7  8  2  0
  8  9  1  0
  9 10  1  0
 10 11  1  0
 10 12  1  0
 10 13  1  0
 13 14  1  0
 13 15  1  0
 13 16  1  0
 16 17  2  0
 17 18  1  0
 18 19  2  0
 19 20  1  0
 20 21  1  0
 21 22  1  0
 21 23  1  0
 21 24  1  0
 20 25  2  0
  9 26  2  0
 26  5  1  0
 25 16  1  0
M  END
$$$$

     RDKit          2D

 15 14  0  0  0  0  0  0  0  0999 V2000
   -5.1962    0.0000    0.0000 F   0  0  0  0  0  0  0  0  0  0  0  0
   -3.8971   -0.7500    0.0000 C   0  0  0  0  0  0  0  0  0  0  0  0
   -3.8971   -2.2500    0.0000 C   0  0  0  0  0  0  0  0  0  0  0  0
   -3.8971   -3.7500    0.0000 F   0  0  0  0  0  0  0  0  0  0  0  0
   -5.3971   -2.2500    0.0000 F   0  0  0  0  0  0  0  0  0  0  0  0
   -2.3971   -2.2500    0.0000 F   0  0  0  0  0  0  0  0  0  0  0  0
   -2.5981    0.0000    0.0000 C   0  0  0  0  0  0  0  0  0  0  0  0
   -1.8481   -1.2990    0.0000 F   0  0  0  0  0  0  0  0  0  0  0  0
   -3.3481    1.2990    0.0000 F   0  0  0  0  0  0  0  0  0  0  0  0
   -1.2990    0.7500    0.0000 O   0  0  0  0  0  0  0  0  0  0  0  0
    0.0000    0.0000    0.0000 C   0  0  0  0  0  0  0  0  0  0  0  0
    1.2990    0.7500    0.0000 C   0  0  0  0  0  0  0  0  0  0  0  0
    2.5981    1.5000    0.0000 F   0  0  0  0  0  0  0  0  0  0  0  0
    2.0490   -0.5490    0.0000 F   0  0  0  0  0  0  0  0  0  0  0  0
    0.5490    2.0490    0.0000 F   0  0  0  0  0  0  0  0  0  0  0  0
  1  2  1  0
  2  3  1  0
  3  4  1  0
  3  5  1  0
  3  6  1  0
  2  7  1  0
  7  8  1  0
  7  9  1  0
  7 10  1  0
 10 11  1  0
 11 12  1  0
 12 13  1  0
 12 14  1  0
 12 15  1  0
M  END
$$$$

     RDKit          2D

 90 90  0  0  0  0  0  0  0  0999 V2000
    8.3944    5.7851    0.0000 F   0  0  0  0  0  0  0  0  0  0  0  0
    8.6549    4.3079    0.0000 C   0  0  0  0  0  0  0  0  0  0  0  0
   10.0644    3.7948    0.0000 F   0  0  0  0  0  0  0  0  0  0  0  0
    7.5058    3.3437    0.0000 C   0  0  0  0  0  0  0  0  0  0  0  0
    6.5416    4.4928    0.0000 F   0  0  0  0  0  0  0  0  0  0  0  0
    8.4700    2.1946    0.0000 F   0  0  0  0  0  0  0  0  0  0  0  0
    6.3567    2.3795    0.0000 C   0  0  0  0  0  0  0  0  0  0  0  0
    5.3926    3.5286    0.0000 F   0  0  0  0  0  0  0  0  0  0  0  0
    7.3209    1.2304    0.0000 F   0  0  0  0  0  0  0  0  0  0  0  0
    5.2077    1.4153    0.0000 C   0  0  0  0  0  0  0  0  0  0  0  0
    6.1719    0.2663    0.0000 F   0  0  0  0  0  0  0  0  0  0  0  0
    4.2435    2.5644    0.0000 F   0  0  0  0  0  0  0  0  0  0  0  0
    4.0586    0.4512    0.0000 C   0  0  0  0  0  0  0  0  0  0  0  0
    2.6491    0.9642    0.0000 O   0  0  0  0  0  0  0  0  0  0  0  0
    1.5000    0.0000    0.0000 P   0  0  0  0  0  0  0  0  0  0  0  0
    2.6491   -0.9642    0.0000 O   0  0  0  0  0  0  0  0  0  0  0  0
    2.3886   -2.4414    0.0000 C   0  0  0  0  0  0  0  0  0  0  0  0
    3.5377   -3.4056    0.0000 C   0  0  0  0  0  0  0  0  0  0  0  0
    2.5735   -4.5546    0.0000 F   0  0  0  0  0  0  0  0  0  0  0  0
    4.5018   -2.2565    0.0000 F   0  0  0  0  0  0  0  0  0  0  0  0
    4.6867   -4.3698    0.0000 C   0  0  0  0  0  0  0  0  0  0  0  0
    5.6509   -3.2207    0.0000 F   0  0  0  0  0  0  0  0  0  0  0  0
    3.7225   -5.5188    0.0000 F   0  0  0  0  0  0  0  0  0  0  0  0
    5.8358   -5.3339    0.0000 C   0  0  0  0  0  0  0  0  0  0  0  0
    6.8000   -4.1849    0.0000 F   0  0  0  0  0  0  0  0  0  0  0  0
    4.8716   -6.4830    0.0000 F   0  0  0  0  0  0  0  0  0  0  0  0
    6.9849   -6.2981    0.0000 C   0  0  0  0  0  0  0  0  0  0  0  0
    8.3944   -5.7851    0.0000 F   0  0  0  0  0  0  0  0  0  0  0  0
    6.7244   -7.7753    0.0000 F   0  0  0  0  0  0  0  0  0  0  0  0
    0.7500   -1.2990    0.0000 N   0  0  0  0  0  0  0  0  0  0  0  0
   -0.7500   -1.2990    0.0000 P   0  0  0  0  0  0  0  0  0  0  0  0
   -0.4895   -2.7762    0.0000 O   0  0  0  0  0  0  0  0  0  0  0  0
   -1.6386   -3.7404    0.0000 C   0  0  0  0  0  0  0  0  0  0  0  0
   -1.3781   -5.2176    0.0000 C   0  0  0  0  0  0  0  0  0  0  0  0
   -2.8553   -5.4781    0.0000 F   0  0  0  0  0  0  0  0  0  0  0  0
    0.0991   -4.9572    0.0000 F   0  0  0  0  0  0  0  0  0  0  0  0
   -1.1176   -6.6949    0.0000 C   0  0  0  0  0  0  0  0  0  0  0  0
    0.3596   -6.4344    0.0000 F   0  0  0  0  0  0  0  0  0  0  0  0
   -2.5949   -6.9553    0.0000 F   0  0  0  0  0  0  0  0  0  0  0  0
   -0.8572   -8.1721    0.0000 C   0  0  0  0  0  0  0  0  0  0  0  0
    0.6200   -7.9116    0.0000 F   0  0  0  0  0  0  0  0  0  0  0  0
   -2.3344   -8.4325    0.0000 F   0  0  0  0  0  0  0  0  0  0  0  0
   -0.5967   -9.6493    0.0000 C   0  0  0  0  0  0  0  0  0  0  0  0
    0.8128  -10.1623    0.0000 F   0  0  0  0  0  0  0  0  0  0  0  0
   -1.7458  -10.6135    0.0000 F   0  0  0  0  0  0  0  0  0  0  0  0
   -2.1595   -1.8121    0.0000 O   0  0  0  0  0  0  0  0  0  0  0  0
   -3.3086   -0.8479    0.0000 C   0  0  0  0  0  0  0  0  0  0  0  0
   -4.7181   -1.3609    0.0000 C   0  0  0  0  0  0  0  0  0  0  0  0
   -5.2312    0.0486    0.0000 F   0  0  0  0  0  0  0  0  0  0  0  0
   -4.2051   -2.7705    0.0000 F   0  0  0  0  0  0  0  0  0  0  0  0
   -6.1277   -1.8739    0.0000 C   0  0  0  0  0  0  0  0  0  0  0  0
   -5.6147   -3.2835    0.0000 F   0  0  0  0  0  0  0  0  0  0  0  0
   -6.6407   -0.4644    0.0000 F   0  0  0  0  0  0  0  0  0  0  0  0
   -7.5372   -2.3870    0.0000 C   0  0  0  0  0  0  0  0  0  0  0  0
   -7.0242   -3.7965    0.0000 F   0  0  0  0  0  0  0  0  0  0  0  0
   -8.0503   -0.9774    0.0000 F   0  0  0  0  0  0  0  0  0  0  0  0
   -8.9468   -2.9000    0.0000 C   0  0  0  0  0  0  0  0  0  0  0  0
   -9.2072   -4.3772    0.0000 F   0  0  0  0  0  0  0  0  0  0  0  0
  -10.0958   -1.9358    0.0000 F   0  0  0  0  0  0  0  0  0  0  0  0
   -1.5000    0.0000    0.0000 N   0  0  0  0  0  0  0  0  0  0  0  0
   -0.7500    1.2990    0.0000 P   0  0  0  0  0  0  0  0  0  0  0  0
   -2.1595    1.8121    0.0000 O   0  0  0  0  0  0  0  0  0  0  0  0
   -2.4200    3.2893    0.0000 C   0  0  0  0  0  0  0  0  0  0  0  0
   -3.8296    3.8023    0.0000 C   0  0  0  0  0  0  0  0  0  0  0  0
   -3.3165    5.2118    0.0000 F   0  0  0  0  0  0  0  0  0  0  0  0
   -4.3426    2.3928    0.0000 F   0  0  0  0  0  0  0  0  0  0  0  0
   -5.2391    4.3153    0.0000 C   0  0  0  0  0  0  0  0  0  0  0  0
   -5.7521    2.9058    0.0000 F   0  0  0  0  0  0  0  0  0  0  0  0
   -4.7261    5.7249    0.0000 F   0  0  0  0  0  0  0  0  0  0  0  0
   -6.6486    4.8284    0.0000 C   0  0  0  0  0  0  0  0  0  0  0  0
   -7.1617    3.4188    0.0000 F   0  0  0  0  0  0  0  0  0  0  0  0
   -6.1356    6.2379    0.0000 F   0  0  0  0  0  0  0  0  0  0  0  0
   -8.0582    5.3414    0.0000 C   0  0  0  0  0  0  0  0  0  0  0  0
   -9.2072    4.3772    0.0000 F   0  0  0  0  0  0  0  0  0  0  0  0
   -8.3186    6.8186    0.0000 F   0  0  0  0  0  0  0  0  0  0  0  0
   -0.4895    2.7762    0.0000 O   0  0  0  0  0  0  0  0  0  0  0  0
    0.9200    3.2893    0.0000 C   0  0  0  0  0  0  0  0  0  0  0  0
    1.1805    4.7665    0.0000 C   0  0  0  0  0  0  0  0  0  0  0  0
   -0.2967    5.0270    0.0000 F   0  0  0  0  0  0  0  0  0  0  0  0
    2.6577    4.5060    0.0000 F   0  0  0  0  0  0  0  0  0  0  0  0
    1.4410    6.2437    0.0000 C   0  0  0  0  0  0  0  0  0  0  0  0
    2.9182    5.9832    0.0000 F   0  0  0  0  0  0  0  0  0  0  0  0
   -0.0363    6.5042    0.0000 F   0  0  0  0  0  0  0  0  0  0  0  0
    1.7014    7.7209    0.0000 C   0  0  0  0  0  0  0  0  0  0  0  0
    3.1786    7.4604    0.0000 F   0  0  0  0  0  0  0  0  0  0  0  0
    0.2242    7.9814    0.0000 F   0  0  0  0  0  0  0  0  0  0  0  0
    1.9619    9.1981    0.0000 C   0  0  0  0  0  0  0  0  0  0  0  0
    3.3714    9.7112    0.0000 F   0  0  0  0  0  0  0  0  0  0  0  0
    0.8128   10.1623    0.0000 F   0  0  0  0  0  0  0  0  0  0  0  0
    0.7500    1.2990    0.0000 N   0  0  0  0  0  0  0  0  0  0  0  0
  1  2  1  0
  2  3  1  0
  2  4  1  0
  4  5  1  0
  4  6  1  0
  4  7  1  0
  7  8  1  0
  7  9  1  0
  7 10  1  0
 10 11  1  0
 10 12  1  0
 10 13  1  0
 13 14  1  0
 14 15  1  0
 15 16  1  0
 16 17  1  0
 17 18  1  0
 18 19  1  0
 18 20  1  0
 18 21  1  0
 21 22  1  0
 21 23  1  0
 21 24  1  0
 24 25  1  0
 24 26  1  0
 24 27  1  0
 27 28  1  0
 27 29  1  0
 15 30  2  0
 30 31  1  0
 31 32  1  0
 32 33  1  0
 33 34  1  0
 34 35  1  0
 34 36  1  0
 34 37  1  0
 37 38  1  0
 37 39  1  0
 37 40  1  0
 40 41  1  0
 40 42  1  0
 40 43  1  0
 43 44  1  0
 43 45  1  0
 31 46  1  0
 46 47  1  0
 47 48  1  0
 48 49  1  0
 48 50  1  0
 48 51  1  0
 51 52  1  0
 51 53  1  0
 51 54  1  0
 54 55  1  0
 54 56  1  0
 54 57  1  0
 57 58  1  0
 57 59  1  0
 31 60  2  0
 60 61  1  0
 61 62  1  0
 62 63  1  0
 63 64  1  0
 64 65  1  0
 64 66  1  0
 64 67  1  0
 67 68  1  0
 67 69  1  0
 67 70  1  0
 70 71  1  0
 70 72  1  0
 70 73  1  0
 73 74  1  0
 73 75  1  0
 61 76  1  0
 76 77  1  0
 77 78  1  0
 78 79  1  0
 78 80  1  0
 78 81  1  0
 81 82  1  0
 81 83  1  0
 81 84  1  0
 84 85  1  0
 84 86  1  0
 84 87  1  0
 87 88  1  0
 87 89  1  0
 61 90  2  0
 90 15  1  0
M  END
$$$$

     RDKit          2D

 33 33  0  0  0  0  0  0  0  0999 V2000
    9.5260  -11.6913    0.0000 F   0  0  0  0  0  0  0  0  0  0  0  0
    8.7760  -10.3923    0.0000 C   0  0  0  0  0  0  0  0  0  0  0  0
    7.4769  -11.1423    0.0000 F   0  0  0  0  0  0  0  0  0  0  0  0
   10.0750   -9.6423    0.0000 F   0  0  0  0  0  0  0  0  0  0  0  0
    8.0260   -9.0933    0.0000 C   0  0  0  0  0  0  0  0  0  0  0  0
    9.3250   -8.3433    0.0000 F   0  0  0  0  0  0  0  0  0  0  0  0
    6.7269   -9.8433    0.0000 F   0  0  0  0  0  0  0  0  0  0  0  0
    7.2760   -7.7942    0.0000 C   0  0  0  0  0  0  0  0  0  0  0  0
    5.9769   -8.5442    0.0000 F   0  0  0  0  0  0  0  0  0  0  0  0
    8.5750   -7.0442    0.0000 F   0  0  0  0  0  0  0  0  0  0  0  0
    6.5260   -6.4952    0.0000 C   0  0  0  0  0  0  0  0  0  0  0  0
    7.8250   -5.7452    0.0000 F   0  0  0  0  0  0  0  0  0  0  0  0
    5.2269   -7.2452    0.0000 F   0  0  0  0  0  0  0  0  0  0  0  0
    5.7760   -5.1962    0.0000 C   0  0  0  0  0  0  0  0  0  0  0  0
    4.4769   -5.9462    0.0000 F   0  0  0  0  0  0  0  0  0  0  0  0
    7.0750   -4.4462    0.0000 F   0  0  0  0  0  0  0  0  0  0  0  0
    5.0260   -3.8971    0.0000 C   0  0  0  0  0  0  0  0  0  0  0  0
    6.3250   -3.1471    0.0000 F   0  0  0  0  0  0  0  0  0  0  0  0
    3.7269   -4.6471    0.0000 F   0  0  0  0  0  0  0  0  0  0  0  0
    4.2760   -2.5981    0.0000 C   0  0  0  0  0  0  0  0  0  0  0  0
    2.9769   -3.3481    0.0000 F   0  0  0  0  0  0  0  0  0  0  0  0
    5.5750   -1.8481    0.0000 F   0  0  0  0  0  0  0  0  0  0  0  0
    3.5260   -1.2990    0.0000 C   0  0  0  0  0  0  0  0  0  0  0  0
    4.8250   -0.5490    0.0000 F   0  0  0  0  0  0  0  0  0  0  0  0
    2.2269   -2.0490    0.0000 F   0  0  0  0  0  0  0  0  0  0  0  0
    2.7760    0.0000    0.0000 C   0  0  0  0  0  0  0  0  0  0  0  0
    1.2760    0.0000    0.0000 C   0  0  0  0  0  0  0  0  0  0  0  0
    0.3943    1.2135    0.0000 C   0  0  0  0  0  0  0  0  0  0  0  0
   -1.0323    0.7500    0.0000 O   0  0  0  0  0  0  0  0  0  0  0  0
   -1.0323   -0.7500    0.0000 C   0  0  0  0  0  0  0  0  0  0  0  0
    0.3943   -1.2135    0.0000 C   0  0  0  0  0  0  0  0  0  0  0  0
    0.8578   -2.6401    0.0000 C   0  0  0  0  0  0  0  0  0  0  0  0
   -0.1459   -3.7548    0.0000 I   0  0  0  0  0  0  0  0  0  0  0  0
  1  2  1  0
  2  3  1  0
  2  4  1  0
  2  5  1  0
  5  6  1  0
  5  7  1  0
  5  8  1  0
  8  9  1  0
  8 10  1  0
  8 11  1  0
 11 12  1  0
 11 13  1  0
 11 14  1  0
 14 15  1  0
 14 16  1  0
 14 17  1  0
 17 18  1  0
 17 19  1  0
 17 20  1  0
 20 21  1  0
 20 22  1  0
 20 23  1  0
 23 24  1  0
 23 25  1  0
 23 26  1  0
 26 27  1  0
 27 28  1  0
 28 29  1  0
 29 30  1  0
 30 31  1  0
 31 32  1  0
 32 33  1  0
 31 27  1  0
M  END
$$$$

     RDKit          2D

 14 13  0  0  0  0  0  0  0  0999 V2000
   -1.5000    0.0000    0.0000 F   0  0  0  0  0  0  0  0  0  0  0  0
    0.0000    0.0000    0.0000 C   0  0  0  0  0  0  0  0  0  0  0  0
    0.0000    1.5000    0.0000 F   0  0  0  0  0  0  0  0  0  0  0  0
   -0.0000   -1.5000    0.0000 F   0  0  0  0  0  0  0  0  0  0  0  0
    1.5000    0.0000    0.0000 C   0  0  0  0  0  0  0  0  0  0  0  0
    1.5000   -1.5000    0.0000 F   0  0  0  0  0  0  0  0  0  0  0  0
    1.5000    1.5000    0.0000 F   0  0  0  0  0  0  0  0  0  0  0  0
    3.0000    0.0000    0.0000 C   0  0  0  0  0  0  0  0  0  0  0  0
    3.0000    1.5000    0.0000 F   0  0  0  0  0  0  0  0  0  0  0  0
    3.0000   -1.5000    0.0000 I   0  0  0  0  0  0  0  0  0  0  0  0
    4.5000    0.0000    0.0000 C   0  0  0  0  0  0  0  0  0  0  0  0
    6.0000    0.0000    0.0000 F   0  0  0  0  0  0  0  0  0  0  0  0
    4.5000   -1.5000    0.0000 F   0  0  0  0  0  0  0  0  0  0  0  0
    4.5000    1.5000    0.0000 F   0  0  0  0  0  0  0  0  0  0  0  0
  1  2  1  0
  2  3  1  0
  2  4  1  0
  2  5  1  0
  5  6  1  0
  5  7  1  0
  5  8  1  0
  8  9  1  0
  8 10  1  0
  8 11  1  0
 11 12  1  0
 11 13  1  0
 11 14  1  0
M  END
$$$$

     RDKit          2D

 12 11  0  0  0  0  0  0  0  0999 V2000
    0.0000    0.0000    0.0000 C   0  0  0  0  0  0  0  0  0  0  0  0
    1.2990    0.7500    0.0000 O   0  0  0  0  0  0  0  0  0  0  0  0
    2.5981   -0.0000    0.0000 C   0  0  0  0  0  0  0  0  0  0  0  0
    2.5981   -1.5000    0.0000 O   0  0  0  0  0  0  0  0  0  0  0  0
    3.8971    0.7500    0.0000 C   0  0  0  0  0  0  0  0  0  0  0  0
    3.1471    2.0490    0.0000 F   0  0  0  0  0  0  0  0  0  0  0  0
    4.6471   -0.5490    0.0000 O   0  0  0  0  0  0  0  0  0  0  0  0
    3.8971   -1.8481    0.0000 C   0  0  0  0  0  0  0  0  0  0  0  0
    5.1962    1.5000    0.0000 C   0  0  0  0  0  0  0  0  0  0  0  0
    6.4952    2.2500    0.0000 F   0  0  0  0  0  0  0  0  0  0  0  0
    4.4462    2.7990    0.0000 F   0  0  0  0  0  0  0  0  0  0  0  0
    5.9462    0.2010    0.0000 F   0  0  0  0  0  0  0  0  0  0  0  0
  1  2  1  0
  2  3  1  0
  3  4  2  0
  3  5  1  0
  5  6  1  0
  5  7  1  0
  7  8  1  0
  5  9  1  0
  9 10  1  0
  9 11  1  0
  9 12  1  0
M  END
$$$$

     RDKit          2D

 47 46  0  0  0  0  0  0  0  0999 V2000
    0.0000    0.0000    0.0000 C   0  0  0  0  0  0  0  0  0  0  0  0
    1.2990    0.7500    0.0000 O   0  0  0  0  0  0  0  0  0  0  0  0
    2.5981   -0.0000    0.0000 C   0  0  0  0  0  0  0  0  0  0  0  0
    2.5981   -1.5000    0.0000 O   0  0  0  0  0  0  0  0  0  0  0  0
    3.8971    0.7500    0.0000 C   0  0  0  0  0  0  0  0  0  0  0  0
    4.6471   -0.5490    0.0000 F   0  0  0  0  0  0  0  0  0  0  0  0
    3.1471    2.0490    0.0000 F   0  0  0  0  0  0  0  0  0  0  0  0
    5.1962    1.5000    0.0000 C   0  0  0  0  0  0  0  0  0  0  0  0
    4.4462    2.7990    0.0000 F   0  0  0  0  0  0  0  0  0  0  0  0
    5.9462    0.2010    0.0000 F   0  0  0  0  0  0  0  0  0  0  0  0
    6.4952    2.2500    0.0000 C   0  0  0  0  0  0  0  0  0  0  0  0
    7.2452    0.9510    0.0000 F   0  0  0  0  0  0  0  0  0  0  0  0
    5.7452    3.5490    0.0000 F   0  0  0  0  0  0  0  0  0  0  0  0
    7.7942    3.0000    0.0000 C   0  0  0  0  0  0  0  0  0  0  0  0
    7.0442    4.2990    0.0000 F   0  0  0  0  0  0  0  0  0  0  0  0
    8.5442    1.7010    0.0000 F   0  0  0  0  0  0  0  0  0  0  0  0
    9.0933    3.7500    0.0000 C   0  0  0  0  0  0  0  0  0  0  0  0
    9.8433    2.4510    0.0000 F   0  0  0  0  0  0  0  0  0  0  0  0
    8.3433    5.0490    0.0000 F   0  0  0  0  0  0  0  0  0  0  0  0
   10.3923    4.5000    0.0000 C   0  0  0  0  0  0  0  0  0  0  0  0
    9.6423    5.7990    0.0000 F   0  0  0  0  0  0  0  0  0  0  0  0
   11.1423    3.2010    0.0000 F   0  0  0  0  0  0  0  0  0  0  0  0
   11.6913    5.2500    0.0000 C   0  0  0  0  0  0  0  0  0  0  0  0
   12.4413    3.9510    0.0000 F   0  0  0  0  0  0  0  0  0  0  0  0
   10.9413    6.5490    0.0000 F   0  0  0  0  0  0  0  0  0  0  0  0
   12.9904    6.0000    0.0000 C   0  0  0  0  0  0  0  0  0  0  0  0
   12.2404    7.2990    0.0000 F   0  0  0  0  0  0  0  0  0  0  0  0
   13.7404    4.7010    0.0000 F   0  0  0  0  0  0  0  0  0  0  0  0
   14.2894    6.7500    0.0000 C   0  0  0  0  0  0  0  0  0  0  0  0
   15.0394    5.4510    0.0000 F   0  0  0  0  0  0  0  0  0  0  0  0
   13.5394    8.0490    0.0000 F   0  0  0  0  0  0  0  0  0  0  0  0
   15.5885    7.5000    0.0000 C   0  0  0  0  0  0  0  0  0  0  0  0
   14.8385    8.7990    0.0000 F   0  0  0  0  0  0  0  0  0  0  0  0
   16.3385    6.2010    0.0000 F   0  0  0  0  0  0  0  0  0  0  0  0
   16.8875    8.2500    0.0000 C   0  0  0  0  0  0  0  0  0  0  0  0
   17.6375    6.9510    0.0000 F   0  0  0  0  0  0  0  0  0  0  0  0
   16.1375    9.5490    0.0000 F   0  0  0  0  0  0  0  0  0  0  0  0
   18.1865    9.0000    0.0000 C   0  0  0  0  0  0  0  0  0  0  0  0
   17.4365   10.2990    0.0000 F   0  0  0  0  0  0  0  0  0  0  0  0
   18.9365    7.7010    0.0000 F   0  0  0  0  0  0  0  0  0  0  0  0
   19.4856    9.7500    0.0000 C   0  0  0  0  0  0  0  0  0  0  0  0
   20.2356    8.4510    0.0000 F   0  0  0  0  0  0  0  0  0  0  0  0
   18.7356   11.0490    0.0000 F   0  0  0  0  0  0  0  0  0  0  0  0
   20.7846   10.5000    0.0000 C   0  0  0  0  0  0  0  0  0  0  0  0
   22.0836   11.2500    0.0000 F   0  0  0  0  0  0  0  0  0  0  0  0
   20.0346   11.7990    0.0000 F   0  0  0  0  0  0  0  0  0  0  0  0
   21.5346    9.2010    0.0000 F   0  0  0  0  0  0  0  0  0  0  0  0
  1  2  1  0
  2  3  1  0
  3  4  2  0
  3  5  1  0
  5  6  1  0
  5  7  1  0
  5  8  1  0
  8  9  1  0
  8 10  1  0
  8 11  1  0
 11 12  1  0
 11 13  1  0
 11 14  1  0
 14 15  1  0
 14 16  1  0
 14 17  1  0
 17 18  1  0
 17 19  1  0
 17 20  1  0
 20 21  1  0
 20 22  1  0
 20 23  1  0
 23 24  1  0
 23 25  1  0
 23 26  1  0
 26 27  1  0
 26 28  1  0
 26 29  1  0
 29 30  1  0
 29 31  1  0
 29 32  1  0
 32 33  1  0
 32 34  1  0
 32 35  1  0
 35 36  1  0
 35 37  1  0
 35 38  1  0
 38 39  1  0
 38 40  1  0
 38 41  1  0
 41 42  1  0
 41 43  1  0
 41 44  1  0
 44 45  1  0
 44 46  1  0
 44 47  1  0
M  END
$$$$

     RDKit          2D

 13 12  0  0  0  0  0  0  0  0999 V2000
   -1.2990    0.7500    0.0000 F   0  0  0  0  0  0  0  0  0  0  0  0
    0.0000    0.0000    0.0000 C   0  0  0  0  0  0  0  0  0  0  0  0
   -0.0000   -1.5000    0.0000 F   0  0  0  0  0  0  0  0  0  0  0  0
    1.2990    0.7500    0.0000 C   0  0  0  0  0  0  0  0  0  0  0  0
    2.0490   -0.5490    0.0000 F   0  0  0  0  0  0  0  0  0  0  0  0
    0.5490    2.0490    0.0000 F   0  0  0  0  0  0  0  0  0  0  0  0
    2.5981    1.5000    0.0000 C   0  0  0  0  0  0  0  0  0  0  0  0
    1.8481    2.7990    0.0000 F   0  0  0  0  0  0  0  0  0  0  0  0
    3.3481    0.2010    0.0000 F   0  0  0  0  0  0  0  0  0  0  0  0
    3.8971    2.2500    0.0000 C   0  0  0  0  0  0  0  0  0  0  0  0
    5.1962    3.0000    0.0000 F   0  0  0  0  0  0  0  0  0  0  0  0
    4.6471    0.9510    0.0000 F   0  0  0  0  0  0  0  0  0  0  0  0
    3.1471    3.5490    0.0000 F   0  0  0  0  0  0  0  0  0  0  0  0
  1  2  1  0
  2  3  1  0
  2  4  1  0
  4  5  1  0
  4  6  1  0
  4  7  1  0
  7  8  1  0
  7  9  1  0
  7 10  1  0
 10 11  1  0
 10 12  1  0
 10 13  1  0
M  END
$$$$

     RDKit          2D

 19 19  0  0  0  0  0  0  0  0999 V2000
    2.7760    0.0000    0.0000 C   0  0  0  0  0  0  0  0  0  0  0  0
    1.2760    0.0000    0.0000 C   0  0  0  0  0  0  0  0  0  0  0  0
    0.3943    1.2135    0.0000 C   0  0  0  0  0  0  0  0  0  0  0  0
   -1.0323    0.7500    0.0000 C   0  0  0  0  0  0  0  0  0  0  0  0
   -2.2458    1.6317    0.0000 C   0  0  0  0  0  0  0  0  0  0  0  0
   -1.3641    2.8452    0.0000 F   0  0  0  0  0  0  0  0  0  0  0  0
   -3.1275    0.4182    0.0000 F   0  0  0  0  0  0  0  0  0  0  0  0
   -3.4593    2.5134    0.0000 C   0  0  0  0  0  0  0  0  0  0  0  0
   -4.3410    1.2998    0.0000 F   0  0  0  0  0  0  0  0  0  0  0  0
   -2.5777    3.7269    0.0000 F   0  0  0  0  0  0  0  0  0  0  0  0
   -4.6729    3.3950    0.0000 C   0  0  0  0  0  0  0  0  0  0  0  0
   -3.7912    4.6086    0.0000 F   0  0  0  0  0  0  0  0  0  0  0  0
   -5.5545    2.1815    0.0000 F   0  0  0  0  0  0  0  0  0  0  0  0
   -5.8864    4.2767    0.0000 C   0  0  0  0  0  0  0  0  0  0  0  0
   -7.0999    5.1584    0.0000 F   0  0  0  0  0  0  0  0  0  0  0  0
   -6.7681    3.0632    0.0000 F   0  0  0  0  0  0  0  0  0  0  0  0
   -5.0047    5.4902    0.0000 F   0  0  0  0  0  0  0  0  0  0  0  0
   -1.0323   -0.7500    0.0000 N   0  0  0  0  0  0  0  0  0  0  0  0
    0.3943   -1.2135    0.0000 N   0  0  0  0  0  0  0  0  0  0  0  0
  1  2  1  0
  2  3  2  0
  3  4  1  0
  4  5  1  0
  5  6  1  0
  5  7  1  0
  5  8  1  0
  8  9  1  0
  8 10  1  0
  8 11  1  0
 11 12  1  0
 11 13  1  0
 11 14  1  0
 14 15  1  0
 14 16  1  0
 14 17  1  0
  4 18  2  0
 18 19  1  0
 19  2  1  0
M  END
$$$$

     RDKit          2D

 10  9  0  0  0  0  0  0  0  0999 V2000
    0.0000    0.0000    0.0000 C   0  0  0  0  0  0  0  0  0  0  0  0
    1.2990    0.7500    0.0000 O   0  0  0  0  0  0  0  0  0  0  0  0
    2.5981   -0.0000    0.0000 C   0  0  0  0  0  0  0  0  0  0  0  0
    3.8971    0.7500    0.0000 C   0  0  0  0  0  0  0  0  0  0  0  0
    4.6471   -0.5490    0.0000 F   0  0  0  0  0  0  0  0  0  0  0  0
    3.1471    2.0490    0.0000 F   0  0  0  0  0  0  0  0  0  0  0  0
    5.1962    1.5000    0.0000 C   0  0  0  0  0  0  0  0  0  0  0  0
    6.4952    2.2500    0.0000 F   0  0  0  0  0  0  0  0  0  0  0  0
    4.4462    2.7990    0.0000 F   0  0  0  0  0  0  0  0  0  0  0  0
    5.9462    0.2010    0.0000 F   0  0  0  0  0  0  0  0  0  0  0  0
  1  2  1  0
  2  3  1  0
  3  4  1  0
  4  5  1  0
  4  6  1  0
  4  7  1  0
  7  8  1  0
  7  9  1  0
  7 10  1  0
M  END
$$$$

     RDKit          2D

 20 20  0  0  0  0  0  0  0  0999 V2000
    4.0586    0.4512    0.0000 O   0  0  0  0  0  0  0  0  0  0  0  0
    2.6491    0.9642    0.0000 C   0  0  0  0  0  0  0  0  0  0  0  0
    2.5976    1.9470    0.0000 O   0  0  0  0  0  0  0  0  0  0  0  0
    1.5000    0.0000    0.0000 C   0  0  0  0  0  0  0  0  0  0  0  0
    2.6491   -0.9642    0.0000 F   0  0  0  0  0  0  0  0  0  0  0  0
    0.7500   -1.2990    0.0000 C   0  0  0  0  0  0  0  0  0  0  0  0
    2.1595   -1.8121    0.0000 F   0  0  0  0  0  0  0  0  0  0  0  0
    0.4895   -2.7762    0.0000 F   0  0  0  0  0  0  0  0  0  0  0  0
   -0.7500   -1.2990    0.0000 C   0  0  0  0  0  0  0  0  0  0  0  0
   -0.4895   -2.7762    0.0000 F   0  0  0  0  0  0  0  0  0  0  0  0
   -2.1595   -1.8121    0.0000 F   0  0  0  0  0  0  0  0  0  0  0  0
   -1.5000    0.0000    0.0000 C   0  0  0  0  0  0  0  0  0  0  0  0
   -2.6491   -0.9642    0.0000 F   0  0  0  0  0  0  0  0  0  0  0  0
   -2.6491    0.9642    0.0000 F   0  0  0  0  0  0  0  0  0  0  0  0
   -0.7500    1.2990    0.0000 C   0  0  0  0  0  0  0  0  0  0  0  0
   -2.1595    1.8121    0.0000 F   0  0  0  0  0  0  0  0  0  0  0  0
   -0.4895    2.7762    0.0000 F   0  0  0  0  0  0  0  0  0  0  0  0
    0.7500    1.2990    0.0000 C   0  0  0  0  0  0  0  0  0  0  0  0
    0.4895    2.7762    0.0000 F   0  0  0  0  0  0  0  0  0  0  0  0
    1.6269    1.7459    0.0000 F   0  0  0  0  0  0  0  0  0  0  0  0
  1  2  2  0
  2  3  1  0
  2  4  1  0
  4  5  1  0
  4  6  1  0
  6  7  1  0
  6  8  1  0
  6  9  1  0
  9 10  1  0
  9 11  1  0
  9 12  1  0
 12 13  1  0
 12 14  1  0
 12 15  1  0
 15 16  1  0
 15 17  1  0
 15 18  1  0
 18 19  1  0
 18 20  1  0
 18  4  1  0
M  END
$$$$

     RDKit          2D

 30 29  0  0  0  0  0  0  0  0999 V2000
   -1.2990    0.7500    0.0000 F   0  0  0  0  0  0  0  0  0  0  0  0
    0.0000    0.0000    0.0000 C   0  0  0  0  0  0  0  0  0  0  0  0
   -0.0000   -1.5000    0.0000 F   0  0  0  0  0  0  0  0  0  0  0  0
    1.2990    0.7500    0.0000 C   0  0  0  0  0  0  0  0  0  0  0  0
    2.0490   -0.5490    0.0000 F   0  0  0  0  0  0  0  0  0  0  0  0
    0.5490    2.0490    0.0000 F   0  0  0  0  0  0  0  0  0  0  0  0
    2.5981    1.5000    0.0000 C   0  0  0  0  0  0  0  0  0  0  0  0
    1.8481    2.7990    0.0000 F   0  0  0  0  0  0  0  0  0  0  0  0
    3.3481    0.2010    0.0000 F   0  0  0  0  0  0  0  0  0  0  0  0
    3.8971    2.2500    0.0000 C   0  0  0  0  0  0  0  0  0  0  0  0
    4.6471    0.9510    0.0000 F   0  0  0  0  0  0  0  0  0  0  0  0
    3.1471    3.5490    0.0000 F   0  0  0  0  0  0  0  0  0  0  0  0
    5.1962    3.0000    0.0000 C   0  0  0  0  0  0  0  0  0  0  0  0
    4.4462    4.2990    0.0000 F   0  0  0  0  0  0  0  0  0  0  0  0
    5.9462    1.7010    0.0000 F   0  0  0  0  0  0  0  0  0  0  0  0
    6.4952    3.7500    0.0000 C   0  0  0  0  0  0  0  0  0  0  0  0
    5.7452    5.0490    0.0000 F   0  0  0  0  0  0  0  0  0  0  0  0
    7.2452    2.4510    0.0000 F   0  0  0  0  0  0  0  0  0  0  0  0
    7.7942    4.5000    0.0000 C   0  0  0  0  0  0  0  0  0  0  0  0
    8.5442    3.2010    0.0000 F   0  0  0  0  0  0  0  0  0  0  0  0
    7.0442    5.7990    0.0000 F   0  0  0  0  0  0  0  0  0  0  0  0
    9.0933    5.2500    0.0000 C   0  0  0  0  0  0  0  0  0  0  0  0
    8.3433    6.5490    0.0000 F   0  0  0  0  0  0  0  0  0  0  0  0
    9.8433    3.9510    0.0000 F   0  0  0  0  0  0  0  0  0  0  0  0
   10.3923    6.0000    0.0000 C   0  0  0  0  0  0  0  0  0  0  0  0
   11.1423    4.7010    0.0000 F   0  0  0  0  0  0  0  0  0  0  0  0
    9.6423    7.2990    0.0000 F   0  0  0  0  0  0  0  0  0  0  0  0
   11.6913    6.7500    0.0000 C   0  0  0  0  0  0  0  0  0  0  0  0
   12.9904    6.0000    0.0000 F   0  0  0  0  0  0  0  0  0  0  0  0
   11.6913    8.2500    0.0000 F   0  0  0  0  0  0  0  0  0  0  0  0
  1  2  1  0
  2  3  1  0
  2  4  1  0
  4  5  1  0
  4  6  1  0
  4  7  1  0
  7  8  1  0
  7  9  1  0
  7 10  1  0
 10 11  1  0
 10 12  1  0
 10 13  1  0
 13 14  1  0
 13 15  1  0
 13 16  1  0
 16 17  1  0
 16 18  1  0
 16 19  1  0
 19 20  1  0
 19 21  1  0
 19 22  1  0
 22 23  1  0
 22 24  1  0
 22 25  1  0
 25 26  1  0
 25 27  1  0
 25 28  1  0
 28 29  1  0
 28 30  1  0
M  END
$$$$

     RDKit          2D

 44 43  0  0  0  0  0  0  0  0999 V2000
   -1.5000    0.0000    0.0000 F   0  0  0  0  0  0  0  0  0  0  0  0
    0.0000    0.0000    0.0000 C   0  0  0  0  0  0  0  0  0  0  0  0
   -0.1080    0.8791    0.0000 F   0  0  0  0  0  0  0  0  0  0  0  0
   -0.0000   -1.5000    0.0000 F   0  0  0  0  0  0  0  0  0  0  0  0
    1.5000    0.0000    0.0000 C   0  0  0  0  0  0  0  0  0  0  0  0
    1.5000   -1.5000    0.0000 F   0  0  0  0  0  0  0  0  0  0  0  0
    1.5000    1.5000    0.0000 C   0  0  0  0  0  0  0  0  0  0  0  0
    1.5000    3.0000    0.0000 F   0  0  0  0  0  0  0  0  0  0  0  0
    2.3791    1.6080    0.0000 F   0  0  0  0  0  0  0  0  0  0  0  0
    0.6209    1.6080    0.0000 F   0  0  0  0  0  0  0  0  0  0  0  0
    3.0000    0.0000    0.0000 C   0  0  0  0  0  0  0  0  0  0  0  0
    3.1080    0.8791    0.0000 F   0  0  0  0  0  0  0  0  0  0  0  0
    3.0000   -1.5000    0.0000 F   0  0  0  0  0  0  0  0  0  0  0  0
    4.5000    0.0000    0.0000 C   0  0  0  0  0  0  0  0  0  0  0  0
    4.5000   -1.5000    0.0000 F   0  0  0  0  0  0  0  0  0  0  0  0
    4.5000    1.5000    0.0000 F   0  0  0  0  0  0  0  0  0  0  0  0
    6.0000    0.0000    0.0000 C   0  0  0  0  0  0  0  0  0  0  0  0
    6.0000    1.5000    0.0000 F   0  0  0  0  0  0  0  0  0  0  0  0
    6.0000   -1.5000    0.0000 F   0  0  0  0  0  0  0  0  0  0  0  0
    7.5000    0.0000    0.0000 C   0  0  0  0  0  0  0  0  0  0  0  0
    7.5000   -1.5000    0.0000 F   0  0  0  0  0  0  0  0  0  0  0  0
    7.5000    1.5000    0.0000 F   0  0  0  0  0  0  0  0  0  0  0  0
    9.0000    0.0000    0.0000 C   0  0  0  0  0  0  0  0  0  0  0  0
    9.0000   -1.5000    0.0000 F   0  0  0  0  0  0  0  0  0  0  0  0
    9.0000    1.5000    0.0000 F   0  0  0  0  0  0  0  0  0  0  0  0
   10.5000    0.0000    0.0000 C   0  0  0  0  0  0  0  0  0  0  0  0
   10.5000    1.5000    0.0000 F   0  0  0  0  0  0  0  0  0  0  0  0
   10.5000   -1.5000    0.0000 F   0  0  0  0  0  0  0  0  0  0  0  0
   12.0000    0.0000    0.0000 C   0  0  0  0  0  0  0  0  0  0  0  0
   12.0000   -1.5000    0.0000 F   0  0  0  0  0  0  0  0  0  0  0  0
   12.0000    1.5000    0.0000 F   0  0  0  0  0  0  0  0  0  0  0  0
   13.5000    0.0000    0.0000 C   0  0  0  0  0  0  0  0  0  0  0  0
   13.3172    1.4888    0.0000 F   0  0  0  0  0  0  0  0  0  0  0  0
   13.5000   -1.5000    0.0000 F   0  0  0  0  0  0  0  0  0  0  0  0
   15.0000    0.0000    0.0000 C   0  0  0  0  0  0  0  0  0  0  0  0
   15.0000   -1.5000    0.0000 F   0  0  0  0  0  0  0  0  0  0  0  0
   16.5000    0.0000    0.0000 C   0  0  0  0  0  0  0  0  0  0  0  0
   18.0000    0.0000    0.0000 F   0  0  0  0  0  0  0  0  0  0  0  0
   16.5000   -1.5000    0.0000 F   0  0  0  0  0  0  0  0  0  0  0  0
   16.6080    0.8791    0.0000 F   0  0  0  0  0  0  0  0  0  0  0  0
   15.0000    1.5000    0.0000 C   0  0  0  0  0  0  0  0  0  0  0  0
   15.0000    3.0000    0.0000 F   0  0  0  0  0  0  0  0  0  0  0  0
   15.8791    1.6080    0.0000 F   0  0  0  0  0  0  0  0  0  0  0  0
   13.5112    1.6828    0.0000 F   0  0  0  0  0  0  0  0  0  0  0  0
  1  2  1  0
  2  3  1  0
  2  4  1  0
  2  5  1  0
  5  6  1  0
  5  7  1  0
  7  8  1  0
  7  9  1  0
  7 10  1  0
  5 11  1  0
 11 12  1  0
 11 13  1  0
 11 14  1  0
 14 15  1  0
 14 16  1  0
 14 17  1  0
 17 18  1  0
 17 19  1  0
 17 20  1  0
 20 21  1  0
 20 22  1  0
 20 23  1  0
 23 24  1  0
 23 25  1  0
 23 26  1  0
 26 27  1  0
 26 28  1  0
 26 29  1  0
 29 30  1  0
 29 31  1  0
 29 32  1  0
 32 33  1  0
 32 34  1  0
 32 35  1  0
 35 36  1  0
 35 37  1  0
 37 38  1  0
 37 39  1  0
 37 40  1  0
 35 41  1  0
 41 42  1  0
 41 43  1  0
 41 44  1  0
M  END
$$$$

     RDKit          2D

 29 28  0  0  0  0  0  0  0  0999 V2000
    0.0000    0.0000    0.0000 C   0  0  0  0  0  0  0  0  0  0  0  0
    1.2990    0.7500    0.0000 C   0  0  0  0  0  0  0  0  0  0  0  0
    2.5981   -0.0000    0.0000 C   0  0  0  0  0  0  0  0  0  0  0  0
    1.2990    2.2500    0.0000 C   0  0  0  0  0  0  0  0  0  0  0  0
    0.0000    3.0000    0.0000 O   0  0  0  0  0  0  0  0  0  0  0  0
    2.5981    3.0000    0.0000 O   0  0  0  0  0  0  0  0  0  0  0  0
    2.5981    4.5000    0.0000 C   0  0  0  0  0  0  0  0  0  0  0  0
    3.8971    5.2500    0.0000 C   0  0  0  0  0  0  0  0  0  0  0  0
    5.1962    4.5000    0.0000 O   0  0  0  0  0  0  0  0  0  0  0  0
    3.8971    6.7500    0.0000 C   0  0  0  0  0  0  0  0  0  0  0  0
    5.1962    7.5000    0.0000 C   0  0  0  0  0  0  0  0  0  0  0  0
    4.4462    8.7990    0.0000 F   0  0  0  0  0  0  0  0  0  0  0  0
    5.9462    6.2010    0.0000 F   0  0  0  0  0  0  0  0  0  0  0  0
    6.4952    8.2500    0.0000 C   0  0  0  0  0  0  0  0  0  0  0  0
    7.2452    6.9510    0.0000 F   0  0  0  0  0  0  0  0  0  0  0  0
    5.7452    9.5490    0.0000 F   0  0  0  0  0  0  0  0  0  0  0  0
    7.7942    9.0000    0.0000 C   0  0  0  0  0  0  0  0  0  0  0  0
    7.0442   10.2990    0.0000 F   0  0  0  0  0  0  0  0  0  0  0  0
    8.5442    7.7010    0.0000 F   0  0  0  0  0  0  0  0  0  0  0  0
    9.0933    9.7500    0.0000 C   0  0  0  0  0  0  0  0  0  0  0  0
    9.8433    8.4510    0.0000 F   0  0  0  0  0  0  0  0  0  0  0  0
    8.3433   11.0490    0.0000 F   0  0  0  0  0  0  0  0  0  0  0  0
   10.3923   10.5000    0.0000 C   0  0  0  0  0  0  0  0  0  0  0  0
    9.6423   11.7990    0.0000 F   0  0  0  0  0  0  0  0  0  0  0  0
   11.1423    9.2010    0.0000 F   0  0  0  0  0  0  0  0  0  0  0  0
   11.6913   11.2500    0.0000 C   0  0  0  0  0  0  0  0  0  0  0  0
   12.9904   12.0000    0.0000 F   0  0  0  0  0  0  0  0  0  0  0  0
   12.4413    9.9510    0.0000 F   0  0  0  0  0  0  0  0  0  0  0  0
   10.9413   12.5490    0.0000 F   0  0  0  0  0  0  0  0  0  0  0  0
  1  2  2  0
  2  3  1  0
  2  4  1  0
  4  5  2  0
  4  6  1  0
  6  7  1  0
  7  8  1  0
  8  9  1  0
  8 10  1  0
 10 11  1  0
 11 12  1  0
 11 13  1  0
 11 14  1  0
 14 15  1  0
 14 16  1  0
 14 17  1  0
 17 18  1  0
 17 19  1  0
 17 20  1  0
 20 21  1  0
 20 22  1  0
 20 23  1  0
 23 24  1  0
 23 25  1  0
 23 26  1  0
 26 27  1  0
 26 28  1  0
 26 29  1  0
M  END
$$$$

     RDKit          2D

 31 30  0  0  0  0  0  0  0  0999 V2000
   -1.2990    0.7500    0.0000 O   0  0  0  0  0  0  0  0  0  0  0  0
    0.0000    0.0000    0.0000 C   0  0  0  0  0  0  0  0  0  0  0  0
    1.2990    0.7500    0.0000 C   0  0  0  0  0  0  0  0  0  0  0  0
    2.5981   -0.0000    0.0000 C   0  0  0  0  0  0  0  0  0  0  0  0
    3.3481    1.2990    0.0000 F   0  0  0  0  0  0  0  0  0  0  0  0
    1.8481   -1.2990    0.0000 F   0  0  0  0  0  0  0  0  0  0  0  0
    3.8971   -0.7500    0.0000 C   0  0  0  0  0  0  0  0  0  0  0  0
    3.1471   -2.0490    0.0000 F   0  0  0  0  0  0  0  0  0  0  0  0
    4.6471    0.5490    0.0000 F   0  0  0  0  0  0  0  0  0  0  0  0
    5.1962   -1.5000    0.0000 C   0  0  0  0  0  0  0  0  0  0  0  0
    5.9462   -0.2010    0.0000 F   0  0  0  0  0  0  0  0  0  0  0  0
    4.4462   -2.7990    0.0000 F   0  0  0  0  0  0  0  0  0  0  0  0
    6.4952   -2.2500    0.0000 C   0  0  0  0  0  0  0  0  0  0  0  0
    7.2452   -0.9510    0.0000 F   0  0  0  0  0  0  0  0  0  0  0  0
    5.7452   -3.5490    0.0000 F   0  0  0  0  0  0  0  0  0  0  0  0
    7.7942   -3.0000    0.0000 C   0  0  0  0  0  0  0  0  0  0  0  0
    7.0442   -4.2990    0.0000 F   0  0  0  0  0  0  0  0  0  0  0  0
    8.5442   -1.7010    0.0000 F   0  0  0  0  0  0  0  0  0  0  0  0
    9.0933   -3.7500    0.0000 C   0  0  0  0  0  0  0  0  0  0  0  0
    9.4393   -2.9347    0.0000 F   0  0  0  0  0  0  0  0  0  0  0  0
    8.3433   -5.0490    0.0000 F   0  0  0  0  0  0  0  0  0  0  0  0
   10.3923   -4.5000    0.0000 C   0  0  0  0  0  0  0  0  0  0  0  0
    9.6423   -5.7990    0.0000 F   0  0  0  0  0  0  0  0  0  0  0  0
   11.6913   -5.2500    0.0000 C   0  0  0  0  0  0  0  0  0  0  0  0
   12.9904   -6.0000    0.0000 F   0  0  0  0  0  0  0  0  0  0  0  0
   10.9413   -6.5490    0.0000 F   0  0  0  0  0  0  0  0  0  0  0  0
   12.2244   -4.5426    0.0000 F   0  0  0  0  0  0  0  0  0  0  0  0
   11.1423   -3.2010    0.0000 C   0  0  0  0  0  0  0  0  0  0  0  0
   11.8923   -1.9019    0.0000 F   0  0  0  0  0  0  0  0  0  0  0  0
   11.9576   -3.5470    0.0000 F   0  0  0  0  0  0  0  0  0  0  0  0
   10.4349   -2.6679    0.0000 F   0  0  0  0  0  0  0  0  0  0  0  0
  1  2  1  0
  2  3  1  0
  3  4  1  0
  4  5  1  0
  4  6  1  0
  4  7  1  0
  7  8  1  0
  7  9  1  0
  7 10  1  0
 10 11  1  0
 10 12  1  0
 10 13  1  0
 13 14  1  0
 13 15  1  0
 13 16  1  0
 16 17  1  0
 16 18  1  0
 16 19  1  0
 19 20  1  0
 19 21  1  0
 19 22  1  0
 22 23  1  0
 22 24  1  0
 24 25  1  0
 24 26  1  0
 24 27  1  0
 22 28  1  0
 28 29  1  0
 28 30  1  0
 28 31  1  0
M  END
$$$$

     RDKit          2D

 27 26  0  0  0  0  0  0  0  0999 V2000
   -1.2990    0.7500    0.0000 O   0  0  0  0  0  0  0  0  0  0  0  0
    0.0000    0.0000    0.0000 C   0  0  0  0  0  0  0  0  0  0  0  0
    1.2990    0.7500    0.0000 C   0  0  0  0  0  0  0  0  0  0  0  0
    1.2990    2.2500    0.0000 I   0  0  0  0  0  0  0  0  0  0  0  0
    2.5981   -0.0000    0.0000 C   0  0  0  0  0  0  0  0  0  0  0  0
    3.8971    0.7500    0.0000 C   0  0  0  0  0  0  0  0  0  0  0  0
    4.6471   -0.5490    0.0000 F   0  0  0  0  0  0  0  0  0  0  0  0
    3.1471    2.0490    0.0000 F   0  0  0  0  0  0  0  0  0  0  0  0
    5.1962    1.5000    0.0000 C   0  0  0  0  0  0  0  0  0  0  0  0
    4.4462    2.7990    0.0000 F   0  0  0  0  0  0  0  0  0  0  0  0
    5.9462    0.2010    0.0000 F   0  0  0  0  0  0  0  0  0  0  0  0
    6.4952    2.2500    0.0000 C   0  0  0  0  0  0  0  0  0  0  0  0
    5.7452    3.5490    0.0000 F   0  0  0  0  0  0  0  0  0  0  0  0
    7.2452    0.9510    0.0000 F   0  0  0  0  0  0  0  0  0  0  0  0
    7.7942    3.0000    0.0000 C   0  0  0  0  0  0  0  0  0  0  0  0
    8.1403    2.1847    0.0000 F   0  0  0  0  0  0  0  0  0  0  0  0
    7.0442    4.2990    0.0000 F   0  0  0  0  0  0  0  0  0  0  0  0
    9.0933    3.7500    0.0000 C   0  0  0  0  0  0  0  0  0  0  0  0
    8.3433    5.0490    0.0000 F   0  0  0  0  0  0  0  0  0  0  0  0
   10.3923    4.5000    0.0000 C   0  0  0  0  0  0  0  0  0  0  0  0
   11.6913    5.2500    0.0000 F   0  0  0  0  0  0  0  0  0  0  0  0
    9.6423    5.7990    0.0000 F   0  0  0  0  0  0  0  0  0  0  0  0
   10.9254    3.7926    0.0000 F   0  0  0  0  0  0  0  0  0  0  0  0
    9.8433    2.4510    0.0000 C   0  0  0  0  0  0  0  0  0  0  0  0
   10.5933    1.1519    0.0000 F   0  0  0  0  0  0  0  0  0  0  0  0
   10.6586    2.7970    0.0000 F   0  0  0  0  0  0  0  0  0  0  0  0
    9.1359    1.9179    0.0000 F   0  0  0  0  0  0  0  0  0  0  0  0
  1  2  1  0
  2  3  1  0
  3  4  1  0
  3  5  1  0
  5  6  1  0
  6  7  1  0
  6  8  1  0
  6  9  1  0
  9 10  1  0
  9 11  1  0
  9 12  1  0
 12 13  1  0
 12 14  1  0
 12 15  1  0
 15 16  1  0
 15 17  1  0
 15 18  1  0
 18 19  1  0
 18 20  1  0
 20 21  1  0
 20 22  1  0
 20 23  1  0
 18 24  1  0
 24 25  1  0
 24 26  1  0
 24 27  1  0
M  END
$$$$

     RDKit          2D

 22 21  0  0  0  0  0  0  0  0999 V2000
   -0.7500   -1.2990    0.0000 C   0  0  0  0  0  0  0  0  0  0  0  0
    0.0000    0.0000    0.0000 C   0  0  0  0  0  0  0  0  0  0  0  0
    1.5000    0.0000    0.0000 C   0  0  0  0  0  0  0  0  0  0  0  0
    2.2500    1.2990    0.0000 C   0  0  0  0  0  0  0  0  0  0  0  0
    3.5490    0.5490    0.0000 F   0  0  0  0  0  0  0  0  0  0  0  0
    0.9510    2.0490    0.0000 F   0  0  0  0  0  0  0  0  0  0  0  0
    3.0000    2.5981    0.0000 C   0  0  0  0  0  0  0  0  0  0  0  0
    1.7010    3.3481    0.0000 F   0  0  0  0  0  0  0  0  0  0  0  0
    4.2990    1.8481    0.0000 F   0  0  0  0  0  0  0  0  0  0  0  0
    3.7500    3.8971    0.0000 C   0  0  0  0  0  0  0  0  0  0  0  0
    5.0490    3.1471    0.0000 F   0  0  0  0  0  0  0  0  0  0  0  0
    2.4510    4.6471    0.0000 F   0  0  0  0  0  0  0  0  0  0  0  0
    4.5000    5.1962    0.0000 C   0  0  0  0  0  0  0  0  0  0  0  0
    3.2010    5.9462    0.0000 F   0  0  0  0  0  0  0  0  0  0  0  0
    5.7990    4.4462    0.0000 F   0  0  0  0  0  0  0  0  0  0  0  0
    5.2500    6.4952    0.0000 C   0  0  0  0  0  0  0  0  0  0  0  0
    6.5490    5.7452    0.0000 F   0  0  0  0  0  0  0  0  0  0  0  0
    3.9510    7.2452    0.0000 F   0  0  0  0  0  0  0  0  0  0  0  0
    6.0000    7.7942    0.0000 C   0  0  0  0  0  0  0  0  0  0  0  0
    6.7500    9.0933    0.0000 F   0  0  0  0  0  0  0  0  0  0  0  0
    4.7010    8.5442    0.0000 F   0  0  0  0  0  0  0  0  0  0  0  0
    7.2990    7.0442    0.0000 F   0  0  0  0  0  0  0  0  0  0  0  0
  1  2  1  0
  2  3  2  0
  3  4  1  0
  4  5  1  0
  4  6  1  0
  4  7  1  0
  7  8  1  0
  7  9  1  0
  7 10  1  0
 10 11  1  0
 10 12  1  0
 10 13  1  0
 13 14  1  0
 13 15  1  0
 13 16  1  0
 16 17  1  0
 16 18  1  0
 16 19  1  0
 19 20  1  0
 19 21  1  0
 19 22  1  0
M  END
$$$$

     RDKit          2D

 22 21  0  0  0  0  0  0  0  0999 V2000
    9.0933    5.2500    0.0000 F   0  0  0  0  0  0  0  0  0  0  0  0
    7.7942    4.5000    0.0000 C   0  0  0  0  0  0  0  0  0  0  0  0
    7.0442    5.7990    0.0000 F   0  0  0  0  0  0  0  0  0  0  0  0
    8.5442    3.2010    0.0000 F   0  0  0  0  0  0  0  0  0  0  0  0
    6.4952    3.7500    0.0000 C   0  0  0  0  0  0  0  0  0  0  0  0
    7.2452    2.4510    0.0000 F   0  0  0  0  0  0  0  0  0  0  0  0
    5.7452    5.0490    0.0000 F   0  0  0  0  0  0  0  0  0  0  0  0
    5.1962    3.0000    0.0000 C   0  0  0  0  0  0  0  0  0  0  0  0
    4.4462    4.2990    0.0000 F   0  0  0  0  0  0  0  0  0  0  0  0
    5.9462    1.7010    0.0000 F   0  0  0  0  0  0  0  0  0  0  0  0
    3.8971    2.2500    0.0000 C   0  0  0  0  0  0  0  0  0  0  0  0
    4.6471    0.9510    0.0000 F   0  0  0  0  0  0  0  0  0  0  0  0
    3.1471    3.5490    0.0000 F   0  0  0  0  0  0  0  0  0  0  0  0
    2.5981    1.5000    0.0000 C   0  0  0  0  0  0  0  0  0  0  0  0
    1.8481    2.7990    0.0000 F   0  0  0  0  0  0  0  0  0  0  0  0
    3.3481    0.2010    0.0000 F   0  0  0  0  0  0  0  0  0  0  0  0
    1.2990    0.7500    0.0000 C   0  0  0  0  0  0  0  0  0  0  0  0
    2.0490   -0.5490    0.0000 F   0  0  0  0  0  0  0  0  0  0  0  0
    0.5490    2.0490    0.0000 F   0  0  0  0  0  0  0  0  0  0  0  0
    0.0000    0.0000    0.0000 C   0  0  0  0  0  0  0  0  0  0  0  0
   -1.2990    0.7500    0.0000 C   0  0  0  0  0  0  0  0  0  0  0  0
   -2.5981    0.0000    0.0000 S   0  0  0  0  0  0  0  0  0  0  0  0
  1  2  1  0
  2  3  1  0
  2  4  1  0
  2  5  1  0
  5  6  1  0
  5  7  1  0
  5  8  1  0
  8  9  1  0
  8 10  1  0
  8 11  1  0
 11 12  1  0
 11 13  1  0
 11 14  1  0
 14 15  1  0
 14 16  1  0
 14 17  1  0
 17 18  1  0
 17 19  1  0
 17 20  1  0
 20 21  1  0
 21 22  1  0
M  END
$$$$

     RDKit          2D

 34 33  0  0  0  0  0  0  0  0999 V2000
    0.0000    0.0000    0.0000 C   0  0  0  0  0  0  0  0  0  0  0  0
    1.2990    0.7500    0.0000 C   0  0  0  0  0  0  0  0  0  0  0  0
    2.5981   -0.0000    0.0000 C   0  0  0  0  0  0  0  0  0  0  0  0
    3.8971    0.7500    0.0000 C   0  0  0  0  0  0  0  0  0  0  0  0
    5.1962   -0.0000    0.0000 O   0  0  0  0  0  0  0  0  0  0  0  0
    3.8971    2.2500    0.0000 O   0  0  0  0  0  0  0  0  0  0  0  0
    5.1962    3.0000    0.0000 C   0  0  0  0  0  0  0  0  0  0  0  0
    5.9462    1.7010    0.0000 F   0  0  0  0  0  0  0  0  0  0  0  0
    4.4462    4.2990    0.0000 F   0  0  0  0  0  0  0  0  0  0  0  0
    6.4952    3.7500    0.0000 C   0  0  0  0  0  0  0  0  0  0  0  0
    5.7452    5.0490    0.0000 F   0  0  0  0  0  0  0  0  0  0  0  0
    7.2452    2.4510    0.0000 F   0  0  0  0  0  0  0  0  0  0  0  0
    7.7942    4.5000    0.0000 C   0  0  0  0  0  0  0  0  0  0  0  0
    8.5442    3.2010    0.0000 F   0  0  0  0  0  0  0  0  0  0  0  0
    7.0442    5.7990    0.0000 F   0  0  0  0  0  0  0  0  0  0  0  0
    9.0933    5.2500    0.0000 C   0  0  0  0  0  0  0  0  0  0  0  0
    8.3433    6.5490    0.0000 F   0  0  0  0  0  0  0  0  0  0  0  0
    9.8433    3.9510    0.0000 F   0  0  0  0  0  0  0  0  0  0  0  0
   10.3923    6.0000    0.0000 C   0  0  0  0  0  0  0  0  0  0  0  0
    9.6423    7.2990    0.0000 F   0  0  0  0  0  0  0  0  0  0  0  0
   11.1423    4.7010    0.0000 F   0  0  0  0  0  0  0  0  0  0  0  0
   11.6913    6.7500    0.0000 C   0  0  0  0  0  0  0  0  0  0  0  0
   12.4413    5.4510    0.0000 F   0  0  0  0  0  0  0  0  0  0  0  0
   10.9413    8.0490    0.0000 F   0  0  0  0  0  0  0  0  0  0  0  0
   12.9904    7.5000    0.0000 C   0  0  0  0  0  0  0  0  0  0  0  0
   12.2404    8.7990    0.0000 F   0  0  0  0  0  0  0  0  0  0  0  0
   13.7404    6.2010    0.0000 F   0  0  0  0  0  0  0  0  0  0  0  0
   14.2894    8.2500    0.0000 C   0  0  0  0  0  0  0  0  0  0  0  0
   15.5885    9.0000    0.0000 F   0  0  0  0  0  0  0  0  0  0  0  0
   15.0394    6.9510    0.0000 F   0  0  0  0  0  0  0  0  0  0  0  0
   13.5394    9.5490    0.0000 F   0  0  0  0  0  0  0  0  0  0  0  0
    1.2990    2.2500    0.0000 C   0  0  0  0  0  0  0  0  0  0  0  0
    0.0000    3.0000    0.0000 O   0  0  0  0  0  0  0  0  0  0  0  0
    2.5981    3.0000    0.0000 O   0  0  0  0  0  0  0  0  0  0  0  0
  1  2  2  0
  2  3  1  0
  3  4  1  0
  4  5  2  0
  4  6  1  0
  6  7  1  0
  7  8  1  0
  7  9  1  0
  7 10  1  0
 10 11  1  0
 10 12  1  0
 10 13  1  0
 13 14  1  0
 13 15  1  0
 13 16  1  0
 16 17  1  0
 16 18  1  0
 16 19  1  0
 19 20  1  0
 19 21  1  0
 19 22  1  0
 22 23  1  0
 22 24  1  0
 22 25  1  0
 25 26  1  0
 25 27  1  0
 25 28  1  0
 28 29  1  0
 28 30  1  0
 28 31  1  0
  2 32  1  0
 32 33  2  0
 32 34  1  0
M  END
$$$$

     RDKit          2D

 31 31  0  0  0  0  0  0  0  0999 V2000
    2.7760    0.0000    0.0000 C   0  0  0  0  0  0  0  0  0  0  0  0
    1.2760    0.0000    0.0000 C   0  0  0  0  0  0  0  0  0  0  0  0
    0.3943    1.2135    0.0000 C   0  0  0  0  0  0  0  0  0  0  0  0
   -1.0323    0.7500    0.0000 C   0  0  0  0  0  0  0  0  0  0  0  0
   -2.2458    1.6317    0.0000 C   0  0  0  0  0  0  0  0  0  0  0  0
   -1.3641    2.8452    0.0000 F   0  0  0  0  0  0  0  0  0  0  0  0
   -3.1275    0.4182    0.0000 F   0  0  0  0  0  0  0  0  0  0  0  0
   -3.4593    2.5134    0.0000 C   0  0  0  0  0  0  0  0  0  0  0  0
   -4.3410    1.2998    0.0000 F   0  0  0  0  0  0  0  0  0  0  0  0
   -2.5777    3.7269    0.0000 F   0  0  0  0  0  0  0  0  0  0  0  0
   -4.6729    3.3950    0.0000 C   0  0  0  0  0  0  0  0  0  0  0  0
   -3.7912    4.6086    0.0000 F   0  0  0  0  0  0  0  0  0  0  0  0
   -5.5545    2.1815    0.0000 F   0  0  0  0  0  0  0  0  0  0  0  0
   -5.8864    4.2767    0.0000 C   0  0  0  0  0  0  0  0  0  0  0  0
   -6.7681    3.0632    0.0000 F   0  0  0  0  0  0  0  0  0  0  0  0
   -5.0047    5.4902    0.0000 F   0  0  0  0  0  0  0  0  0  0  0  0
   -7.0999    5.1584    0.0000 C   0  0  0  0  0  0  0  0  0  0  0  0
   -6.2182    6.3719    0.0000 F   0  0  0  0  0  0  0  0  0  0  0  0
   -7.9816    3.9449    0.0000 F   0  0  0  0  0  0  0  0  0  0  0  0
   -8.3134    6.0401    0.0000 C   0  0  0  0  0  0  0  0  0  0  0  0
   -9.1951    4.8265    0.0000 F   0  0  0  0  0  0  0  0  0  0  0  0
   -7.4318    7.2536    0.0000 F   0  0  0  0  0  0  0  0  0  0  0  0
   -9.5270    6.9217    0.0000 C   0  0  0  0  0  0  0  0  0  0  0  0
   -8.6453    8.1353    0.0000 F   0  0  0  0  0  0  0  0  0  0  0  0
  -10.4086    5.7082    0.0000 F   0  0  0  0  0  0  0  0  0  0  0  0
  -10.7405    7.8034    0.0000 C   0  0  0  0  0  0  0  0  0  0  0  0
  -11.9540    8.6851    0.0000 F   0  0  0  0  0  0  0  0  0  0  0  0
  -11.6222    6.5899    0.0000 F   0  0  0  0  0  0  0  0  0  0  0  0
   -9.8588    9.0169    0.0000 F   0  0  0  0  0  0  0  0  0  0  0  0
   -1.0323   -0.7500    0.0000 N   0  0  0  0  0  0  0  0  0  0  0  0
    0.3943   -1.2135    0.0000 N   0  0  0  0  0  0  0  0  0  0  0  0
  1  2  1  0
  2  3  2  0
  3  4  1  0
  4  5  1  0
  5  6  1  0
  5  7  1  0
  5  8  1  0
  8  9  1  0
  8 10  1  0
  8 11  1  0
 11 12  1  0
 11 13  1  0
 11 14  1  0
 14 15  1  0
 14 16  1  0
 14 17  1  0
 17 18  1  0
 17 19  1  0
 17 20  1  0
 20 21  1  0
 20 22  1  0
 20 23  1  0
 23 24  1  0
 23 25  1  0
 23 26  1  0
 26 27  1  0
 26 28  1  0
 26 29  1  0
  4 30  2  0
 30 31  1  0
 31  2  1  0
M  END
$$$$

     RDKit          2D

 15 16  0  0  0  0  0  0  0  0999 V2000
    3.0000    0.0000    0.0000 N   0  0  0  0  0  0  0  0  0  0  0  0
    1.5000    0.0000    0.0000 C   0  0  0  0  0  0  0  0  0  0  0  0
    0.7500   -1.2990    0.0000 C   0  0  0  0  0  0  0  0  0  0  0  0
   -0.7500   -1.2990    0.0000 C   0  0  0  0  0  0  0  0  0  0  0  0
   -1.5000    0.0000    0.0000 C   0  0  0  0  0  0  0  0  0  0  0  0
   -0.7500    1.2990    0.0000 C   0  0  0  0  0  0  0  0  0  0  0  0
    0.7500    1.2990    0.0000 C   0  0  0  0  0  0  0  0  0  0  0  0
   -1.5000    2.5981    0.0000 C   0  0  0  0  0  0  0  0  0  0  0  0
   -1.7605    4.0753    0.0000 F   0  0  0  0  0  0  0  0  0  0  0  0
   -0.0905    3.1111    0.0000 F   0  0  0  0  0  0  0  0  0  0  0  0
   -3.0000    2.5981    0.0000 O   0  0  0  0  0  0  0  0  0  0  0  0
   -3.7500    1.2990    0.0000 C   0  0  0  0  0  0  0  0  0  0  0  0
   -4.8991    0.3349    0.0000 F   0  0  0  0  0  0  0  0  0  0  0  0
   -4.8991    2.2632    0.0000 F   0  0  0  0  0  0  0  0  0  0  0  0
   -3.0000    0.0000    0.0000 O   0  0  0  0  0  0  0  0  0  0  0  0
  1  2  1  0
  2  3  2  0
  3  4  1  0
  4  5  2  0
  5  6  1  0
  6  7  2  0
  6  8  1  0
  8  9  1  0
  8 10  1  0
  8 11  1  0
 11 12  1  0
 12 13  1  0
 12 14  1  0
 12 15  1  0
  7  2  1  0
 15  5  1  0
M  END
$$$$

     RDKit          2D

 26 26  0  0  0  0  0  0  0  0999 V2000
    3.0000    0.0000    0.0000 F   0  0  0  0  0  0  0  0  0  0  0  0
    1.5000    0.0000    0.0000 C   0  0  0  0  0  0  0  0  0  0  0  0
    0.7500   -1.2990    0.0000 C   0  0  0  0  0  0  0  0  0  0  0  0
    1.5000   -2.5981    0.0000 F   0  0  0  0  0  0  0  0  0  0  0  0
   -0.7500   -1.2990    0.0000 C   0  0  0  0  0  0  0  0  0  0  0  0
   -1.5000   -2.5981    0.0000 O   0  0  0  0  0  0  0  0  0  0  0  0
   -3.0000   -2.5981    0.0000 C   0  0  0  0  0  0  0  0  0  0  0  0
   -3.7500   -3.8971    0.0000 C   0  0  0  0  0  0  0  0  0  0  0  0
   -5.0490   -3.1471    0.0000 F   0  0  0  0  0  0  0  0  0  0  0  0
   -2.4510   -4.6471    0.0000 F   0  0  0  0  0  0  0  0  0  0  0  0
   -4.5000   -5.1962    0.0000 C   0  0  0  0  0  0  0  0  0  0  0  0
   -3.7500   -6.4952    0.0000 F   0  0  0  0  0  0  0  0  0  0  0  0
   -6.0000   -5.1962    0.0000 F   0  0  0  0  0  0  0  0  0  0  0  0
   -1.5000    0.0000    0.0000 C   0  0  0  0  0  0  0  0  0  0  0  0
   -3.0000    0.0000    0.0000 F   0  0  0  0  0  0  0  0  0  0  0  0
   -0.7500    1.2990    0.0000 C   0  0  0  0  0  0  0  0  0  0  0  0
   -1.5000    2.5981    0.0000 F   0  0  0  0  0  0  0  0  0  0  0  0
    0.7500    1.2990    0.0000 C   0  0  0  0  0  0  0  0  0  0  0  0
    1.5000    2.5981    0.0000 O   0  0  0  0  0  0  0  0  0  0  0  0
    3.0000    2.5981    0.0000 C   0  0  0  0  0  0  0  0  0  0  0  0
    3.7500    3.8971    0.0000 C   0  0  0  0  0  0  0  0  0  0  0  0
    5.0490    3.1471    0.0000 F   0  0  0  0  0  0  0  0  0  0  0  0
    2.4510    4.6471    0.0000 F   0  0  0  0  0  0  0  0  0  0  0  0
    4.5000    5.1962    0.0000 C   0  0  0  0  0  0  0  0  0  0  0  0
    3.7500    6.4952    0.0000 F   0  0  0  0  0  0  0  0  0  0  0  0
    6.0000    5.1962    0.0000 F   0  0  0  0  0  0  0  0  0  0  0  0
  1  2  1  0
  2  3  2  0
  3  4  1  0
  3  5  1  0
  5  6  1  0
  6  7  1  0
  7  8  1  0
  8  9  1  0
  8 10  1  0
  8 11  1  0
 11 12  1  0
 11 13  1  0
  5 14  2  0
 14 15  1  0
 14 16  1  0
 16 17  1  0
 16 18  2  0
 18 19  1  0
 19 20  1  0
 20 21  1  0
 21 22  1  0
 21 23  1  0
 21 24  1  0
 24 25  1  0
 24 26  1  0
 18  2  1  0
M  END
$$$$

     RDKit          2D

 14 14  0  0  0  0  0  0  0  0999 V2000
    3.0000    0.0000    0.0000 N   0  0  0  0  0  0  0  0  0  0  0  0
    1.5000    0.0000    0.0000 C   0  0  0  0  0  0  0  0  0  0  0  0
    0.7500   -1.2990    0.0000 C   0  0  0  0  0  0  0  0  0  0  0  0
   -0.7500   -1.2990    0.0000 C   0  0  0  0  0  0  0  0  0  0  0  0
   -1.5000    0.0000    0.0000 C   0  0  0  0  0  0  0  0  0  0  0  0
   -3.0000    0.0000    0.0000 O   0  0  0  0  0  0  0  0  0  0  0  0
   -3.7500    1.2990    0.0000 C   0  0  0  0  0  0  0  0  0  0  0  0
   -2.4510    2.0490    0.0000 F   0  0  0  0  0  0  0  0  0  0  0  0
   -5.0490    0.5490    0.0000 F   0  0  0  0  0  0  0  0  0  0  0  0
   -4.5000    2.5981    0.0000 C   0  0  0  0  0  0  0  0  0  0  0  0
   -3.7500    3.8971    0.0000 F   0  0  0  0  0  0  0  0  0  0  0  0
   -6.0000    2.5981    0.0000 F   0  0  0  0  0  0  0  0  0  0  0  0
   -0.7500    1.2990    0.0000 C   0  0  0  0  0  0  0  0  0  0  0  0
    0.7500    1.2990    0.0000 C   0  0  0  0  0  0  0  0  0  0  0  0
  1  2  1  0
  2  3  2  0
  3  4  1  0
  4  5  2  0
  5  6  1  0
  6  7  1  0
  7  8  1  0
  7  9  1  0
  7 10  1  0
 10 11  1  0
 10 12  1  0
  5 13  1  0
 13 14  2  0
 14  2  1  0
M  END
$$$$

     RDKit          2D

 13 12  0  0  0  0  0  0  0  0999 V2000
    0.0000    0.0000    0.0000 C   0  0  0  0  0  0  0  0  0  0  0  0
    1.2990    0.7500    0.0000 C   0  0  0  0  0  0  0  0  0  0  0  0
    2.5981   -0.0000    0.0000 C   0  0  0  0  0  0  0  0  0  0  0  0
    1.8481   -1.2990    0.0000 F   0  0  0  0  0  0  0  0  0  0  0  0
    3.3481    1.2990    0.0000 O   0  0  0  0  0  0  0  0  0  0  0  0
    2.5981    2.5981    0.0000 C   0  0  0  0  0  0  0  0  0  0  0  0
    1.8481    3.8971    0.0000 F   0  0  0  0  0  0  0  0  0  0  0  0
    3.8971    3.3481    0.0000 F   0  0  0  0  0  0  0  0  0  0  0  0
    1.2990    1.8481    0.0000 F   0  0  0  0  0  0  0  0  0  0  0  0
    3.8971   -0.7500    0.0000 C   0  0  0  0  0  0  0  0  0  0  0  0
    5.1962   -1.5000    0.0000 F   0  0  0  0  0  0  0  0  0  0  0  0
    3.1471   -2.0490    0.0000 F   0  0  0  0  0  0  0  0  0  0  0  0
    4.6471    0.5490    0.0000 F   0  0  0  0  0  0  0  0  0  0  0  0
  1  2  2  0
  2  3  1  0
  3  4  1  0
  3  5  1  0
  5  6  1  0
  6  7  1  0
  6  8  1  0
  6  9  1  0
  3 10  1  0
 10 11  1  0
 10 12  1  0
 10 13  1  0
M  END
$$$$

     RDKit          2D

 20 19  0  0  0  0  0  0  0  0999 V2000
   -1.5000    0.0000    0.0000 F   0  0  0  0  0  0  0  0  0  0  0  0
    0.0000    0.0000    0.0000 C   0  0  0  0  0  0  0  0  0  0  0  0
    0.0000    1.5000    0.0000 F   0  0  0  0  0  0  0  0  0  0  0  0
   -0.0000   -1.5000    0.0000 Cl  0  0  0  0  0  0  0  0  0  0  0  0
    1.5000    0.0000    0.0000 C   0  0  0  0  0  0  0  0  0  0  0  0
    1.5000    1.5000    0.0000 F   0  0  0  0  0  0  0  0  0  0  0  0
    1.5000   -1.5000    0.0000 Br  0  0  0  0  0  0  0  0  0  0  0  0
    3.0000    0.0000    0.0000 C   0  0  0  0  0  0  0  0  0  0  0  0
    3.0000   -1.5000    0.0000 F   0  0  0  0  0  0  0  0  0  0  0  0
    3.0000    1.5000    0.0000 F   0  0  0  0  0  0  0  0  0  0  0  0
    4.5000    0.0000    0.0000 C   0  0  0  0  0  0  0  0  0  0  0  0
    4.5000   -1.5000    0.0000 F   0  0  0  0  0  0  0  0  0  0  0  0
    4.5000    1.5000    0.0000 Br  0  0  0  0  0  0  0  0  0  0  0  0
    6.0000    0.0000    0.0000 C   0  0  0  0  0  0  0  0  0  0  0  0
    6.0000    1.5000    0.0000 F   0  0  0  0  0  0  0  0  0  0  0  0
    6.0000   -1.5000    0.0000 F   0  0  0  0  0  0  0  0  0  0  0  0
    7.5000    0.0000    0.0000 C   0  0  0  0  0  0  0  0  0  0  0  0
    9.0000    0.0000    0.0000 F   0  0  0  0  0  0  0  0  0  0  0  0
    7.5000   -1.5000    0.0000 Cl  0  0  0  0  0  0  0  0  0  0  0  0
    7.5000    1.5000    0.0000 Br  0  0  0  0  0  0  0  0  0  0  0  0
  1  2  1  0
  2  3  1  0
  2  4  1  0
  2  5  1  0
  5  6  1  0
  5  7  1  0
  5  8  1  0
  8  9  1  0
  8 10  1  0
  8 11  1  0
 11 12  1  0
 11 13  1  0
 11 14  1  0
 14 15  1  0
 14 16  1  0
 14 17  1  0
 17 18  1  0
 17 19  1  0
 17 20  1  0
M  END
$$$$

     RDKit          2D

 12 11  0  0  0  0  0  0  0  0999 V2000
    0.0000    0.0000    0.0000 C   0  0  0  0  0  0  0  0  0  0  0  0
    1.2990    0.7500    0.0000 C   0  0  0  0  0  0  0  0  0  0  0  0
    2.5981   -0.0000    0.0000 C   0  0  0  0  0  0  0  0  0  0  0  0
    1.8481   -1.2990    0.0000 F   0  0  0  0  0  0  0  0  0  0  0  0
    3.8971   -0.7500    0.0000 C   0  0  0  0  0  0  0  0  0  0  0  0
    5.1962   -1.5000    0.0000 F   0  0  0  0  0  0  0  0  0  0  0  0
    3.1471   -2.0490    0.0000 F   0  0  0  0  0  0  0  0  0  0  0  0
    4.4302   -0.0426    0.0000 F   0  0  0  0  0  0  0  0  0  0  0  0
    3.3481    1.2990    0.0000 C   0  0  0  0  0  0  0  0  0  0  0  0
    4.0981    2.5981    0.0000 F   0  0  0  0  0  0  0  0  0  0  0  0
    2.0490    2.0490    0.0000 F   0  0  0  0  0  0  0  0  0  0  0  0
    4.1634    0.9530    0.0000 F   0  0  0  0  0  0  0  0  0  0  0  0
  1  2  2  0
  2  3  1  0
  3  4  1  0
  3  5  1  0
  5  6  1  0
  5  7  1  0
  5  8  1  0
  3  9  1  0
  9 10  1  0
  9 11  1  0
  9 12  1  0
M  END
$$$$

     RDKit          2D

 19 18  0  0  0  0  0  0  0  0999 V2000
    3.8971    2.2500    0.0000 F   0  0  0  0  0  0  0  0  0  0  0  0
    2.5981    1.5000    0.0000 C   0  0  0  0  0  0  0  0  0  0  0  0
    1.8481    2.7990    0.0000 F   0  0  0  0  0  0  0  0  0  0  0  0
    3.3481    0.2010    0.0000 F   0  0  0  0  0  0  0  0  0  0  0  0
    1.2990    0.7500    0.0000 C   0  0  0  0  0  0  0  0  0  0  0  0
    2.0490   -0.5490    0.0000 F   0  0  0  0  0  0  0  0  0  0  0  0
    0.5490    2.0490    0.0000 F   0  0  0  0  0  0  0  0  0  0  0  0
    0.0000    0.0000    0.0000 C   0  0  0  0  0  0  0  0  0  0  0  0
   -1.2990    0.7500    0.0000 O   0  0  0  0  0  0  0  0  0  0  0  0
   -2.5981    0.0000    0.0000 C   0  0  0  0  0  0  0  0  0  0  0  0
   -1.8481   -1.2990    0.0000 F   0  0  0  0  0  0  0  0  0  0  0  0
   -3.3481    1.2990    0.0000 Br  0  0  0  0  0  0  0  0  0  0  0  0
   -3.8971   -0.7500    0.0000 C   0  0  0  0  0  0  0  0  0  0  0  0
   -4.6471    0.5490    0.0000 F   0  0  0  0  0  0  0  0  0  0  0  0
   -3.1471   -2.0490    0.0000 Br  0  0  0  0  0  0  0  0  0  0  0  0
   -5.1962   -1.5000    0.0000 C   0  0  0  0  0  0  0  0  0  0  0  0
   -6.4952   -2.2500    0.0000 F   0  0  0  0  0  0  0  0  0  0  0  0
   -5.9462   -0.2010    0.0000 F   0  0  0  0  0  0  0  0  0  0  0  0
   -4.4462   -2.7990    0.0000 F   0  0  0  0  0  0  0  0  0  0  0  0
  1  2  1  0
  2  3  1  0
  2  4  1  0
  2  5  1  0
  5  6  1  0
  5  7  1  0
  5  8  1  0
  8  9  1  0
  9 10  1  0
 10 11  1  0
 10 12  1  0
 10 13  1  0
 13 14  1  0
 13 15  1  0
 13 16  1  0
 16 17  1  0
 16 18  1  0
 16 19  1  0
M  END
$$$$

     RDKit          2D

 23 22  0  0  0  0  0  0  0  0999 V2000
    1.5000    0.0000    0.0000 C   0  0  0  0  0  0  0  0  0  0  0  0
    0.7500   -1.2990    0.0000 C   0  0  0  0  0  0  0  0  0  0  0  0
   -0.7500   -1.2990    0.0000 O   0  0  0  0  0  0  0  0  0  0  0  0
   -1.5000    0.0000    0.0000 C   0  0  0  0  0  0  0  0  0  0  0  0
   -0.7500    1.2990    0.0000 C   0  0  0  0  0  0  0  0  0  0  0  0
    0.7500    1.2990    0.0000 N   0  0  0  0  0  0  0  0  0  0  0  0
   -1.5000    3.7990    0.0000 O   0  0  0  0  0  0  0  0  0  0  0  0
    0.0000    3.7990    0.0000 S   0  0  0  0  0  0  0  0  0  0  0  0
    0.7912    3.7019    0.0000 O   0  0  0  0  0  0  0  0  0  0  0  0
   -0.0000    2.2990    0.0000 O   0  0  0  0  0  0  0  0  0  0  0  0
    0.0000    5.2990    0.0000 C   0  0  0  0  0  0  0  0  0  0  0  0
   -1.5000    5.2990    0.0000 F   0  0  0  0  0  0  0  0  0  0  0  0
    0.0000    6.7990    0.0000 F   0  0  0  0  0  0  0  0  0  0  0  0
    1.5000    5.2990    0.0000 C   0  0  0  0  0  0  0  0  0  0  0  0
    1.5000    6.7990    0.0000 F   0  0  0  0  0  0  0  0  0  0  0  0
    1.6080    4.4199    0.0000 F   0  0  0  0  0  0  0  0  0  0  0  0
    3.0000    5.2990    0.0000 C   0  0  0  0  0  0  0  0  0  0  0  0
    3.0000    6.7990    0.0000 F   0  0  0  0  0  0  0  0  0  0  0  0
    3.0000    3.7990    0.0000 F   0  0  0  0  0  0  0  0  0  0  0  0
    4.5000    5.2990    0.0000 C   0  0  0  0  0  0  0  0  0  0  0  0
    6.0000    5.2990    0.0000 F   0  0  0  0  0  0  0  0  0  0  0  0
    4.5000    3.7990    0.0000 F   0  0  0  0  0  0  0  0  0  0  0  0
    4.5000    6.7990    0.0000 F   0  0  0  0  0  0  0  0  0  0  0  0
  1  2  1  0
  2  3  1  0
  3  4  1  0
  4  5  1  0
  5  6  1  0
  7  8  2  0
  8  9  2  0
  8 10  1  0
  8 11  1  0
 11 12  1  0
 11 13  1  0
 11 14  1  0
 14 15  1  0
 14 16  1  0
 14 17  1  0
 17 18  1  0
 17 19  1  0
 17 20  1  0
 20 21  1  0
 20 22  1  0
 20 23  1  0
  6  1  1  0
M  CHG  2   6   1  10  -1
M  END
$$$$

     RDKit          2D

 35 34  0  0  0  0  0  0  0  0999 V2000
    0.0000    0.0000    0.0000 C   0  0  0  0  0  0  0  0  0  0  0  0
    1.2990    0.7500    0.0000 C   0  0  0  0  0  0  0  0  0  0  0  0
    2.5981   -0.0000    0.0000 C   0  0  0  0  0  0  0  0  0  0  0  0
    1.2990    2.2500    0.0000 C   0  0  0  0  0  0  0  0  0  0  0  0
    0.0000    3.0000    0.0000 O   0  0  0  0  0  0  0  0  0  0  0  0
    2.5981    3.0000    0.0000 O   0  0  0  0  0  0  0  0  0  0  0  0
    2.5981    4.5000    0.0000 C   0  0  0  0  0  0  0  0  0  0  0  0
    3.8971    5.2500    0.0000 C   0  0  0  0  0  0  0  0  0  0  0  0
    5.1962    4.5000    0.0000 O   0  0  0  0  0  0  0  0  0  0  0  0
    3.8971    6.7500    0.0000 C   0  0  0  0  0  0  0  0  0  0  0  0
    5.1962    7.5000    0.0000 C   0  0  0  0  0  0  0  0  0  0  0  0
    4.4462    8.7990    0.0000 F   0  0  0  0  0  0  0  0  0  0  0  0
    5.9462    6.2010    0.0000 F   0  0  0  0  0  0  0  0  0  0  0  0
    6.4952    8.2500    0.0000 C   0  0  0  0  0  0  0  0  0  0  0  0
    7.2452    6.9510    0.0000 F   0  0  0  0  0  0  0  0  0  0  0  0
    5.7452    9.5490    0.0000 F   0  0  0  0  0  0  0  0  0  0  0  0
    7.7942    9.0000    0.0000 C   0  0  0  0  0  0  0  0  0  0  0  0
    7.0442   10.2990    0.0000 F   0  0  0  0  0  0  0  0  0  0  0  0
    8.5442    7.7010    0.0000 F   0  0  0  0  0  0  0  0  0  0  0  0
    9.0933    9.7500    0.0000 C   0  0  0  0  0  0  0  0  0  0  0  0
    9.8433    8.4510    0.0000 F   0  0  0  0  0  0  0  0  0  0  0  0
    8.3433   11.0490    0.0000 F   0  0  0  0  0  0  0  0  0  0  0  0
   10.3923   10.5000    0.0000 C   0  0  0  0  0  0  0  0  0  0  0  0
    9.6423   11.7990    0.0000 F   0  0  0  0  0  0  0  0  0  0  0  0
   11.1423    9.2010    0.0000 F   0  0  0  0  0  0  0  0  0  0  0  0
   11.6913   11.2500    0.0000 C   0  0  0  0  0  0  0  0  0  0  0  0
   12.4413    9.9510    0.0000 F   0  0  0  0  0  0  0  0  0  0  0  0
   10.9413   12.5490    0.0000 F   0  0  0  0  0  0  0  0  0  0  0  0
   12.9904   12.0000    0.0000 C   0  0  0  0  0  0  0  0  0  0  0  0
   12.2404   13.2990    0.0000 F   0  0  0  0  0  0  0  0  0  0  0  0
   13.7404   10.7010    0.0000 F   0  0  0  0  0  0  0  0  0  0  0  0
   14.2894   12.7500    0.0000 C   0  0  0  0  0  0  0  0  0  0  0  0
   15.5885   13.5000    0.0000 F   0  0  0  0  0  0  0  0  0  0  0  0
   15.0394   11.4510    0.0000 F   0  0  0  0  0  0  0  0  0  0  0  0
   13.5394   14.0490    0.0000 F   0  0  0  0  0  0  0  0  0  0  0  0
  1  2  2  0
  2  3  1  0
  2  4  1  0
  4  5  2  0
  4  6  1  0
  6  7  1  0
  7  8  1  0
  8  9  1  0
  8 10  1  0
 10 11  1  0
 11 12  1  0
 11 13  1  0
 11 14  1  0
 14 15  1  0
 14 16  1  0
 14 17  1  0
 17 18  1  0
 17 19  1  0
 17 20  1  0
 20 21  1  0
 20 22  1  0
 20 23  1  0
 23 24  1  0
 23 25  1  0
 23 26  1  0
 26 27  1  0
 26 28  1  0
 26 29  1  0
 29 30  1  0
 29 31  1  0
 29 32  1  0
 32 33  1  0
 32 34  1  0
 32 35  1  0
M  END
$$$$

     RDKit          2D

 22 21  0  0  0  0  0  0  0  0999 V2000
    0.0000    0.0000    0.0000 C   0  0  0  0  0  0  0  0  0  0  0  0
    1.2990    0.7500    0.0000 O   0  0  0  0  0  0  0  0  0  0  0  0
    2.5981   -0.0000    0.0000 C   0  0  0  0  0  0  0  0  0  0  0  0
    2.5981   -1.5000    0.0000 O   0  0  0  0  0  0  0  0  0  0  0  0
    3.8971    0.7500    0.0000 C   0  0  0  0  0  0  0  0  0  0  0  0
    4.6471   -0.5490    0.0000 F   0  0  0  0  0  0  0  0  0  0  0  0
    3.1471    2.0490    0.0000 F   0  0  0  0  0  0  0  0  0  0  0  0
    5.1962    1.5000    0.0000 O   0  0  0  0  0  0  0  0  0  0  0  0
    5.1962    3.0000    0.0000 C   0  0  0  0  0  0  0  0  0  0  0  0
    3.6962    3.0000    0.0000 F   0  0  0  0  0  0  0  0  0  0  0  0
    6.6962    3.0000    0.0000 F   0  0  0  0  0  0  0  0  0  0  0  0
    5.1962    4.5000    0.0000 C   0  0  0  0  0  0  0  0  0  0  0  0
    3.6962    4.5000    0.0000 F   0  0  0  0  0  0  0  0  0  0  0  0
    6.6962    4.5000    0.0000 F   0  0  0  0  0  0  0  0  0  0  0  0
    5.1962    6.0000    0.0000 O   0  0  0  0  0  0  0  0  0  0  0  0
    6.4952    6.7500    0.0000 C   0  0  0  0  0  0  0  0  0  0  0  0
    7.2452    5.4510    0.0000 F   0  0  0  0  0  0  0  0  0  0  0  0
    5.7452    8.0490    0.0000 F   0  0  0  0  0  0  0  0  0  0  0  0
    7.7942    7.5000    0.0000 C   0  0  0  0  0  0  0  0  0  0  0  0
    7.7942    9.0000    0.0000 O   0  0  0  0  0  0  0  0  0  0  0  0
    9.0933    6.7500    0.0000 O   0  0  0  0  0  0  0  0  0  0  0  0
   10.3923    7.5000    0.0000 C   0  0  0  0  0  0  0  0  0  0  0  0
  1  2  1  0
  2  3  1  0
  3  4  2  0
  3  5  1  0
  5  6  1  0
  5  7  1  0
  5  8  1  0
  8  9  1  0
  9 10  1  0
  9 11  1  0
  9 12  1  0
 12 13  1  0
 12 14  1  0
 12 15  1  0
 15 16  1  0
 16 17  1  0
 16 18  1  0
 16 19  1  0
 19 20  2  0
 19 21  1  0
 21 22  1  0
M  END
$$$$

     RDKit          2D

  8  7  0  0  0  0  0  0  0  0999 V2000
    1.2990    2.2500    0.0000 F   0  0  0  0  0  0  0  0  0  0  0  0
    1.2990    0.7500    0.0000 C   0  0  0  0  0  0  0  0  0  0  0  0
    0.0000    0.0000    0.0000 C   0  0  0  0  0  0  0  0  0  0  0  0
   -1.2990    0.7500    0.0000 Br  0  0  0  0  0  0  0  0  0  0  0  0
    2.5981   -0.0000    0.0000 C   0  0  0  0  0  0  0  0  0  0  0  0
    3.8971   -0.7500    0.0000 F   0  0  0  0  0  0  0  0  0  0  0  0
    3.3481    1.2990    0.0000 F   0  0  0  0  0  0  0  0  0  0  0  0
    1.8481   -1.2990    0.0000 F   0  0  0  0  0  0  0  0  0  0  0  0
  1  2  1  0
  2  3  2  3
  3  4  1  0
  2  5  1  0
  5  6  1  0
  5  7  1  0
  5  8  1  0
M  END
$$$$

     RDKit          2D

 33 32  0  0  0  0  0  0  0  0999 V2000
   -1.2990    0.7500    0.0000 O   0  0  0  0  0  0  0  0  0  0  0  0
    0.0000    0.0000    0.0000 C   0  0  0  0  0  0  0  0  0  0  0  0
    1.2990    0.7500    0.0000 C   0  0  0  0  0  0  0  0  0  0  0  0
    2.0490   -0.5490    0.0000 F   0  0  0  0  0  0  0  0  0  0  0  0
    0.5490    2.0490    0.0000 F   0  0  0  0  0  0  0  0  0  0  0  0
    2.5981    1.5000    0.0000 O   0  0  0  0  0  0  0  0  0  0  0  0
    2.5981    3.0000    0.0000 C   0  0  0  0  0  0  0  0  0  0  0  0
    1.0981    3.0000    0.0000 F   0  0  0  0  0  0  0  0  0  0  0  0
    4.0981    3.0000    0.0000 F   0  0  0  0  0  0  0  0  0  0  0  0
    2.5981    4.5000    0.0000 C   0  0  0  0  0  0  0  0  0  0  0  0
    1.0981    4.5000    0.0000 F   0  0  0  0  0  0  0  0  0  0  0  0
    4.0981    4.5000    0.0000 F   0  0  0  0  0  0  0  0  0  0  0  0
    2.5981    6.0000    0.0000 O   0  0  0  0  0  0  0  0  0  0  0  0
    3.8971    6.7500    0.0000 C   0  0  0  0  0  0  0  0  0  0  0  0
    4.6471    5.4510    0.0000 F   0  0  0  0  0  0  0  0  0  0  0  0
    3.1471    8.0490    0.0000 F   0  0  0  0  0  0  0  0  0  0  0  0
    5.1962    7.5000    0.0000 C   0  0  0  0  0  0  0  0  0  0  0  0
    5.9462    6.2010    0.0000 F   0  0  0  0  0  0  0  0  0  0  0  0
    4.4462    8.7990    0.0000 F   0  0  0  0  0  0  0  0  0  0  0  0
    6.4952    8.2500    0.0000 O   0  0  0  0  0  0  0  0  0  0  0  0
    6.4952    9.7500    0.0000 C   0  0  0  0  0  0  0  0  0  0  0  0
    4.9952    9.7500    0.0000 F   0  0  0  0  0  0  0  0  0  0  0  0
    7.9952    9.7500    0.0000 F   0  0  0  0  0  0  0  0  0  0  0  0
    6.4952   11.2500    0.0000 C   0  0  0  0  0  0  0  0  0  0  0  0
    7.9952   11.2500    0.0000 F   0  0  0  0  0  0  0  0  0  0  0  0
    4.9952   11.2500    0.0000 F   0  0  0  0  0  0  0  0  0  0  0  0
    6.4952   12.7500    0.0000 C   0  0  0  0  0  0  0  0  0  0  0  0
    7.9952   12.7500    0.0000 F   0  0  0  0  0  0  0  0  0  0  0  0
    4.9952   12.7500    0.0000 F   0  0  0  0  0  0  0  0  0  0  0  0
    6.4952   14.2500    0.0000 C   0  0  0  0  0  0  0  0  0  0  0  0
    6.4952   15.7500    0.0000 F   0  0  0  0  0  0  0  0  0  0  0  0
    4.9952   14.2500    0.0000 F   0  0  0  0  0  0  0  0  0  0  0  0
    7.9952   14.2500    0.0000 F   0  0  0  0  0  0  0  0  0  0  0  0
  1  2  1  0
  2  3  1  0
  3  4  1  0
  3  5  1  0
  3  6  1  0
  6  7  1  0
  7  8  1  0
  7  9  1  0
  7 10  1  0
 10 11  1  0
 10 12  1  0
 10 13  1  0
 13 14  1  0
 14 15  1  0
 14 16  1  0
 14 17  1  0
 17 18  1  0
 17 19  1  0
 17 20  1  0
 20 21  1  0
 21 22  1  0
 21 23  1  0
 21 24  1  0
 24 25  1  0
 24 26  1  0
 24 27  1  0
 27 28  1  0
 27 29  1  0
 27 30  1  0
 30 31  1  0
 30 32  1  0
 30 33  1  0
M  END
$$$$

     RDKit          2D

 15 15  0  0  0  0  0  0  0  0999 V2000
    3.0000    0.0000    0.0000 O   0  0  0  0  0  0  0  0  0  0  0  0
    1.5000    0.0000    0.0000 C   0  0  0  0  0  0  0  0  0  0  0  0
    0.7500   -1.2990    0.0000 C   0  0  0  0  0  0  0  0  0  0  0  0
   -0.7500   -1.2990    0.0000 C   0  0  0  0  0  0  0  0  0  0  0  0
   -1.5000    0.0000    0.0000 C   0  0  0  0  0  0  0  0  0  0  0  0
   -0.7500    1.2990    0.0000 C   0  0  0  0  0  0  0  0  0  0  0  0
    0.7500    1.2990    0.0000 C   0  0  0  0  0  0  0  0  0  0  0  0
    1.5000    2.5981    0.0000 O   0  0  0  0  0  0  0  0  0  0  0  0
    0.7500    3.8971    0.0000 C   0  0  0  0  0  0  0  0  0  0  0  0
   -0.5490    3.1471    0.0000 F   0  0  0  0  0  0  0  0  0  0  0  0
    2.0490    4.6471    0.0000 F   0  0  0  0  0  0  0  0  0  0  0  0
    0.0000    5.1962    0.0000 C   0  0  0  0  0  0  0  0  0  0  0  0
   -0.7500    6.4952    0.0000 F   0  0  0  0  0  0  0  0  0  0  0  0
   -1.2990    4.4462    0.0000 F   0  0  0  0  0  0  0  0  0  0  0  0
    1.2990    5.9462    0.0000 F   0  0  0  0  0  0  0  0  0  0  0  0
  1  2  1  0
  2  3  2  0
  3  4  1  0
  4  5  2  0
  5  6  1  0
  6  7  2  0
  7  8  1  0
  8  9  1  0
  9 10  1  0
  9 11  1  0
  9 12  1  0
 12 13  1  0
 12 14  1  0
 12 15  1  0
  7  2  1  0
M  END
$$$$

     RDKit          2D

 21 20  0  0  0  0  0  0  0  0999 V2000
    9.0933    5.2500    0.0000 F   0  0  0  0  0  0  0  0  0  0  0  0
    7.7942    4.5000    0.0000 C   0  0  0  0  0  0  0  0  0  0  0  0
    7.0442    5.7990    0.0000 F   0  0  0  0  0  0  0  0  0  0  0  0
    8.5442    3.2010    0.0000 F   0  0  0  0  0  0  0  0  0  0  0  0
    6.4952    3.7500    0.0000 C   0  0  0  0  0  0  0  0  0  0  0  0
    7.2452    2.4510    0.0000 F   0  0  0  0  0  0  0  0  0  0  0  0
    5.7452    5.0490    0.0000 F   0  0  0  0  0  0  0  0  0  0  0  0
    5.1962    3.0000    0.0000 C   0  0  0  0  0  0  0  0  0  0  0  0
    4.4462    4.2990    0.0000 F   0  0  0  0  0  0  0  0  0  0  0  0
    5.9462    1.7010    0.0000 F   0  0  0  0  0  0  0  0  0  0  0  0
    3.8971    2.2500    0.0000 C   0  0  0  0  0  0  0  0  0  0  0  0
    3.1471    3.5490    0.0000 F   0  0  0  0  0  0  0  0  0  0  0  0
    4.6471    0.9510    0.0000 F   0  0  0  0  0  0  0  0  0  0  0  0
    2.5981    1.5000    0.0000 C   0  0  0  0  0  0  0  0  0  0  0  0
    3.3481    0.2010    0.0000 F   0  0  0  0  0  0  0  0  0  0  0  0
    1.8481    2.7990    0.0000 F   0  0  0  0  0  0  0  0  0  0  0  0
    1.2990    0.7500    0.0000 C   0  0  0  0  0  0  0  0  0  0  0  0
    0.5490    2.0490    0.0000 F   0  0  0  0  0  0  0  0  0  0  0  0
    2.0490   -0.5490    0.0000 F   0  0  0  0  0  0  0  0  0  0  0  0
    0.0000    0.0000    0.0000 C   0  0  0  0  0  0  0  0  0  0  0  0
   -1.2990    0.7500    0.0000 I   0  0  0  0  0  0  0  0  0  0  0  0
  1  2  1  0
  2  3  1  0
  2  4  1  0
  2  5  1  0
  5  6  1  0
  5  7  1  0
  5  8  1  0
  8  9  1  0
  8 10  1  0
  8 11  1  0
 11 12  1  0
 11 13  1  0
 11 14  1  0
 14 15  1  0
 14 16  1  0
 14 17  1  0
 17 18  1  0
 17 19  1  0
 17 20  1  0
 20 21  1  0
M  END
$$$$

     RDKit          2D

 39 38  0  0  0  0  0  0  0  0999 V2000
    0.0000    0.0000    0.0000 C   0  0  0  0  0  0  0  0  0  0  0  0
    1.2990    0.7500    0.0000 C   0  0  0  0  0  0  0  0  0  0  0  0
    2.5981   -0.0000    0.0000 C   0  0  0  0  0  0  0  0  0  0  0  0
    3.3481    1.2990    0.0000 F   0  0  0  0  0  0  0  0  0  0  0  0
    1.8481   -1.2990    0.0000 F   0  0  0  0  0  0  0  0  0  0  0  0
    3.8971   -0.7500    0.0000 C   0  0  0  0  0  0  0  0  0  0  0  0
    3.1471   -2.0490    0.0000 F   0  0  0  0  0  0  0  0  0  0  0  0
    4.6471    0.5490    0.0000 F   0  0  0  0  0  0  0  0  0  0  0  0
    5.1962   -1.5000    0.0000 C   0  0  0  0  0  0  0  0  0  0  0  0
    5.9462   -0.2010    0.0000 F   0  0  0  0  0  0  0  0  0  0  0  0
    4.4462   -2.7990    0.0000 F   0  0  0  0  0  0  0  0  0  0  0  0
    6.4952   -2.2500    0.0000 C   0  0  0  0  0  0  0  0  0  0  0  0
    5.7452   -3.5490    0.0000 F   0  0  0  0  0  0  0  0  0  0  0  0
    7.2452   -0.9510    0.0000 F   0  0  0  0  0  0  0  0  0  0  0  0
    7.7942   -3.0000    0.0000 C   0  0  0  0  0  0  0  0  0  0  0  0
    8.5442   -1.7010    0.0000 F   0  0  0  0  0  0  0  0  0  0  0  0
    7.0442   -4.2990    0.0000 F   0  0  0  0  0  0  0  0  0  0  0  0
    9.0933   -3.7500    0.0000 C   0  0  0  0  0  0  0  0  0  0  0  0
    8.3433   -5.0490    0.0000 F   0  0  0  0  0  0  0  0  0  0  0  0
    9.8433   -2.4510    0.0000 F   0  0  0  0  0  0  0  0  0  0  0  0
   10.3923   -4.5000    0.0000 C   0  0  0  0  0  0  0  0  0  0  0  0
   11.1423   -3.2010    0.0000 F   0  0  0  0  0  0  0  0  0  0  0  0
    9.6423   -5.7990    0.0000 F   0  0  0  0  0  0  0  0  0  0  0  0
   11.6913   -5.2500    0.0000 C   0  0  0  0  0  0  0  0  0  0  0  0
   10.9413   -6.5490    0.0000 F   0  0  0  0  0  0  0  0  0  0  0  0
   12.4413   -3.9510    0.0000 F   0  0  0  0  0  0  0  0  0  0  0  0
   12.9904   -6.0000    0.0000 C   0  0  0  0  0  0  0  0  0  0  0  0
   13.7404   -4.7010    0.0000 F   0  0  0  0  0  0  0  0  0  0  0  0
   12.2404   -7.2990    0.0000 F   0  0  0  0  0  0  0  0  0  0  0  0
   14.2894   -6.7500    0.0000 C   0  0  0  0  0  0  0  0  0  0  0  0
   13.5394   -8.0490    0.0000 F   0  0  0  0  0  0  0  0  0  0  0  0
   15.0394   -5.4510    0.0000 F   0  0  0  0  0  0  0  0  0  0  0  0
   15.5885   -7.5000    0.0000 C   0  0  0  0  0  0  0  0  0  0  0  0
   16.3385   -6.2010    0.0000 F   0  0  0  0  0  0  0  0  0  0  0  0
   14.8385   -8.7990    0.0000 F   0  0  0  0  0  0  0  0  0  0  0  0
   16.8875   -8.2500    0.0000 C   0  0  0  0  0  0  0  0  0  0  0  0
   18.1865   -9.0000    0.0000 F   0  0  0  0  0  0  0  0  0  0  0  0
   16.1375   -9.5490    0.0000 F   0  0  0  0  0  0  0  0  0  0  0  0
   17.6375   -6.9510    0.0000 F   0  0  0  0  0  0  0  0  0  0  0  0
  1  2  2  0
  2  3  1  0
  3  4  1  0
  3  5  1  0
  3  6  1  0
  6  7  1  0
  6  8  1  0
  6  9  1  0
  9 10  1  0
  9 11  1  0
  9 12  1  0
 12 13  1  0
 12 14  1  0
 12 15  1  0
 15 16  1  0
 15 17  1  0
 15 18  1  0
 18 19  1  0
 18 20  1  0
 18 21  1  0
 21 22  1  0
 21 23  1  0
 21 24  1  0
 24 25  1  0
 24 26  1  0
 24 27  1  0
 27 28  1  0
 27 29  1  0
 27 30  1  0
 30 31  1  0
 30 32  1  0
 30 33  1  0
 33 34  1  0
 33 35  1  0
 33 36  1  0
 36 37  1  0
 36 38  1  0
 36 39  1  0
M  END
$$$$

     RDKit          2D

 20 20  0  0  0  0  0  0  0  0999 V2000
    3.7500   -3.8971    0.0000 F   0  0  0  0  0  0  0  0  0  0  0  0
    4.5000   -2.5981    0.0000 C   0  0  0  0  0  0  0  0  0  0  0  0
    6.0000   -2.5981    0.0000 F   0  0  0  0  0  0  0  0  0  0  0  0
    3.7500   -1.2990    0.0000 C   0  0  0  0  0  0  0  0  0  0  0  0
    2.4510   -2.0490    0.0000 F   0  0  0  0  0  0  0  0  0  0  0  0
    5.0490   -0.5490    0.0000 F   0  0  0  0  0  0  0  0  0  0  0  0
    3.0000    0.0000    0.0000 O   0  0  0  0  0  0  0  0  0  0  0  0
    1.5000    0.0000    0.0000 C   0  0  0  0  0  0  0  0  0  0  0  0
    0.7500   -1.2990    0.0000 C   0  0  0  0  0  0  0  0  0  0  0  0
   -0.7500   -1.2990    0.0000 C   0  0  0  0  0  0  0  0  0  0  0  0
   -1.5000    0.0000    0.0000 C   0  0  0  0  0  0  0  0  0  0  0  0
   -0.7500    1.2990    0.0000 C   0  0  0  0  0  0  0  0  0  0  0  0
    0.7500    1.2990    0.0000 C   0  0  0  0  0  0  0  0  0  0  0  0
    1.5000    2.5981    0.0000 O   0  0  0  0  0  0  0  0  0  0  0  0
    0.7500    3.8971    0.0000 C   0  0  0  0  0  0  0  0  0  0  0  0
   -0.5490    3.1471    0.0000 F   0  0  0  0  0  0  0  0  0  0  0  0
    2.0490    4.6471    0.0000 F   0  0  0  0  0  0  0  0  0  0  0  0
    0.0000    5.1962    0.0000 C   0  0  0  0  0  0  0  0  0  0  0  0
   -1.5000    5.1962    0.0000 F   0  0  0  0  0  0  0  0  0  0  0  0
    0.7500    6.4952    0.0000 F   0  0  0  0  0  0  0  0  0  0  0  0
  1  2  1  0
  2  3  1  0
  2  4  1  0
  4  5  1  0
  4  6  1  0
  4  7  1  0
  7  8  1  0
  8  9  2  0
  9 10  1  0
 10 11  2  0
 11 12  1  0
 12 13  2  0
 13 14  1  0
 14 15  1  0
 15 16  1  0
 15 17  1  0
 15 18  1  0
 18 19  1  0
 18 20  1  0
 13  8  1  0
M  END
$$$$

     RDKit          2D

 12 11  0  0  0  0  0  0  0  0999 V2000
    0.0000    0.0000    0.0000 C   0  0  0  0  0  0  0  0  0  0  0  0
    1.2990    0.7500    0.0000 C   0  0  0  0  0  0  0  0  0  0  0  0
    2.5981   -0.0000    0.0000 O   0  0  0  0  0  0  0  0  0  0  0  0
    3.8971    0.7500    0.0000 C   0  0  0  0  0  0  0  0  0  0  0  0
    3.8971    2.2500    0.0000 O   0  0  0  0  0  0  0  0  0  0  0  0
    5.1962   -0.0000    0.0000 C   0  0  0  0  0  0  0  0  0  0  0  0
    5.9462    1.2990    0.0000 F   0  0  0  0  0  0  0  0  0  0  0  0
    4.4462   -1.2990    0.0000 F   0  0  0  0  0  0  0  0  0  0  0  0
    6.4952   -0.7500    0.0000 C   0  0  0  0  0  0  0  0  0  0  0  0
    7.7942   -1.5000    0.0000 F   0  0  0  0  0  0  0  0  0  0  0  0
    5.7452   -2.0490    0.0000 F   0  0  0  0  0  0  0  0  0  0  0  0
    7.2452    0.5490    0.0000 Cl  0  0  0  0  0  0  0  0  0  0  0  0
  1  2  1  0
  2  3  1  0
  3  4  1  0
  4  5  2  0
  4  6  1  0
  6  7  1  0
  6  8  1  0
  6  9  1  0
  9 10  1  0
  9 11  1  0
  9 12  1  0
M  END
$$$$

     RDKit          2D

 10  9  0  0  0  0  0  0  0  0999 V2000
   -1.2990    0.7500    0.0000 O   0  0  0  0  0  0  0  0  0  0  0  0
    0.0000    0.0000    0.0000 C   0  0  0  0  0  0  0  0  0  0  0  0
   -0.0000   -1.5000    0.0000 Cl  0  0  0  0  0  0  0  0  0  0  0  0
    1.2990    0.7500    0.0000 C   0  0  0  0  0  0  0  0  0  0  0  0
    2.0490   -0.5490    0.0000 F   0  0  0  0  0  0  0  0  0  0  0  0
    0.5490    2.0490    0.0000 F   0  0  0  0  0  0  0  0  0  0  0  0
    2.5981    1.5000    0.0000 C   0  0  0  0  0  0  0  0  0  0  0  0
    3.8971    2.2500    0.0000 F   0  0  0  0  0  0  0  0  0  0  0  0
    1.8481    2.7990    0.0000 F   0  0  0  0  0  0  0  0  0  0  0  0
    3.3481    0.2010    0.0000 Cl  0  0  0  0  0  0  0  0  0  0  0  0
  1  2  2  0
  2  3  1  0
  2  4  1  0
  4  5  1  0
  4  6  1  0
  4  7  1  0
  7  8  1  0
  7  9  1  0
  7 10  1  0
M  END
$$$$

     RDKit          2D

 21 20  0  0  0  0  0  0  0  0999 V2000
   -0.0000   -1.5000    0.0000 N   0  0  0  0  0  0  0  0  0  0  0  0
    0.0000    0.0000    0.0000 C   0  0  0  0  0  0  0  0  0  0  0  0
    0.0000    1.5000    0.0000 C   0  0  0  0  0  0  0  0  0  0  0  0
    1.5000    1.5000    0.0000 F   0  0  0  0  0  0  0  0  0  0  0  0
   -1.5000    1.5000    0.0000 F   0  0  0  0  0  0  0  0  0  0  0  0
    0.0000    3.0000    0.0000 C   0  0  0  0  0  0  0  0  0  0  0  0
   -1.5000    3.0000    0.0000 F   0  0  0  0  0  0  0  0  0  0  0  0
    1.5000    3.0000    0.0000 F   0  0  0  0  0  0  0  0  0  0  0  0
    0.0000    4.5000    0.0000 C   0  0  0  0  0  0  0  0  0  0  0  0
    1.5000    4.5000    0.0000 F   0  0  0  0  0  0  0  0  0  0  0  0
   -1.5000    4.5000    0.0000 F   0  0  0  0  0  0  0  0  0  0  0  0
    0.0000    6.0000    0.0000 C   0  0  0  0  0  0  0  0  0  0  0  0
   -1.5000    6.0000    0.0000 F   0  0  0  0  0  0  0  0  0  0  0  0
    1.5000    6.0000    0.0000 F   0  0  0  0  0  0  0  0  0  0  0  0
    0.0000    7.5000    0.0000 C   0  0  0  0  0  0  0  0  0  0  0  0
    1.5000    7.5000    0.0000 F   0  0  0  0  0  0  0  0  0  0  0  0
   -1.5000    7.5000    0.0000 F   0  0  0  0  0  0  0  0  0  0  0  0
    0.0000    9.0000    0.0000 C   0  0  0  0  0  0  0  0  0  0  0  0
    0.0000   10.5000    0.0000 F   0  0  0  0  0  0  0  0  0  0  0  0
   -1.5000    9.0000    0.0000 F   0  0  0  0  0  0  0  0  0  0  0  0
    1.5000    9.0000    0.0000 F   0  0  0  0  0  0  0  0  0  0  0  0
  1  2  3  0
  2  3  1  0
  3  4  1  0
  3  5  1  0
  3  6  1  0
  6  7  1  0
  6  8  1  0
  6  9  1  0
  9 10  1  0
  9 11  1  0
  9 12  1  0
 12 13  1  0
 12 14  1  0
 12 15  1  0
 15 16  1  0
 15 17  1  0
 15 18  1  0
 18 19  1  0
 18 20  1  0
 18 21  1  0
M  END
$$$$

     RDKit          2D

 20 19  0  0  0  0  0  0  0  0999 V2000
   -3.8971   -2.2500    0.0000 F   0  0  0  0  0  0  0  0  0  0  0  0
   -3.8971   -0.7500    0.0000 C   0  0  0  0  0  0  0  0  0  0  0  0
   -5.1962    0.0000    0.0000 F   0  0  0  0  0  0  0  0  0  0  0  0
   -2.5981    0.0000    0.0000 C   0  0  0  0  0  0  0  0  0  0  0  0
   -1.8481   -1.2990    0.0000 F   0  0  0  0  0  0  0  0  0  0  0  0
   -3.3481    1.2990    0.0000 F   0  0  0  0  0  0  0  0  0  0  0  0
   -1.2990    0.7500    0.0000 O   0  0  0  0  0  0  0  0  0  0  0  0
    0.0000    0.0000    0.0000 C   0  0  0  0  0  0  0  0  0  0  0  0
    1.2990    0.7500    0.0000 C   0  0  0  0  0  0  0  0  0  0  0  0
    2.0490   -0.5490    0.0000 F   0  0  0  0  0  0  0  0  0  0  0  0
    0.5490    2.0490    0.0000 F   0  0  0  0  0  0  0  0  0  0  0  0
    2.5981    1.5000    0.0000 C   0  0  0  0  0  0  0  0  0  0  0  0
    1.8481    2.7990    0.0000 F   0  0  0  0  0  0  0  0  0  0  0  0
    3.3481    0.2010    0.0000 F   0  0  0  0  0  0  0  0  0  0  0  0
    3.8971    2.2500    0.0000 C   0  0  0  0  0  0  0  0  0  0  0  0
    3.1471    3.5490    0.0000 F   0  0  0  0  0  0  0  0  0  0  0  0
    4.6471    0.9510    0.0000 F   0  0  0  0  0  0  0  0  0  0  0  0
    5.1962    3.0000    0.0000 C   0  0  0  0  0  0  0  0  0  0  0  0
    5.1962    4.5000    0.0000 F   0  0  0  0  0  0  0  0  0  0  0  0
    6.4952    2.2500    0.0000 F   0  0  0  0  0  0  0  0  0  0  0  0
  1  2  1  0
  2  3  1  0
  2  4  1  0
  4  5  1  0
  4  6  1  0
  4  7  1  0
  7  8  1  0
  8  9  1  0
  9 10  1  0
  9 11  1  0
  9 12  1  0
 12 13  1  0
 12 14  1  0
 12 15  1  0
 15 16  1  0
 15 17  1  0
 15 18  1  0
 18 19  1  0
 18 20  1  0
M  END
$$$$

     RDKit          2D

 14 13  0  0  0  0  0  0  0  0999 V2000
    0.0000    0.0000    0.0000 C   0  0  0  0  0  0  0  0  0  0  0  0
    1.2990    0.7500    0.0000 C   0  0  0  0  0  0  0  0  0  0  0  0
    1.2990    2.2500    0.0000 O   0  0  0  0  0  0  0  0  0  0  0  0
    2.5981   -0.0000    0.0000 C   0  0  0  0  0  0  0  0  0  0  0  0
    3.8971    0.7500    0.0000 C   0  0  0  0  0  0  0  0  0  0  0  0
    3.1471    2.0490    0.0000 F   0  0  0  0  0  0  0  0  0  0  0  0
    5.1962    1.5000    0.0000 C   0  0  0  0  0  0  0  0  0  0  0  0
    6.4952    2.2500    0.0000 F   0  0  0  0  0  0  0  0  0  0  0  0
    4.4462    2.7990    0.0000 F   0  0  0  0  0  0  0  0  0  0  0  0
    5.7292    0.7926    0.0000 F   0  0  0  0  0  0  0  0  0  0  0  0
    4.6471   -0.5490    0.0000 C   0  0  0  0  0  0  0  0  0  0  0  0
    5.3971   -1.8481    0.0000 F   0  0  0  0  0  0  0  0  0  0  0  0
    5.4624   -0.2030    0.0000 F   0  0  0  0  0  0  0  0  0  0  0  0
    3.3481   -1.2990    0.0000 F   0  0  0  0  0  0  0  0  0  0  0  0
  1  2  1  0
  2  3  2  0
  2  4  1  0
  4  5  1  0
  5  6  1  0
  5  7  1  0
  7  8  1  0
  7  9  1  0
  7 10  1  0
  5 11  1  0
 11 12  1  0
 11 13  1  0
 11 14  1  0
M  END
$$$$

     RDKit          2D

 18 17  0  0  0  0  0  0  0  0999 V2000
    1.2990    2.2500    0.0000 C   0  0  0  0  0  0  0  0  0  0  0  0
    1.2990    0.7500    0.0000 O   0  0  0  0  0  0  0  0  0  0  0  0
    2.5981   -0.0000    0.0000 S   0  0  0  0  0  0  0  0  0  0  0  0
    3.3481    1.2990    0.0000 O   0  0  0  0  0  0  0  0  0  0  0  0
    2.1183   -0.6366    0.0000 O   0  0  0  0  0  0  0  0  0  0  0  0
    3.8971   -0.7500    0.0000 C   0  0  0  0  0  0  0  0  0  0  0  0
    4.6471    0.5490    0.0000 F   0  0  0  0  0  0  0  0  0  0  0  0
    5.1962   -1.5000    0.0000 F   0  0  0  0  0  0  0  0  0  0  0  0
    3.1471   -2.0490    0.0000 C   0  0  0  0  0  0  0  0  0  0  0  0
    2.3318   -1.7030    0.0000 F   0  0  0  0  0  0  0  0  0  0  0  0
    4.4462   -2.7990    0.0000 F   0  0  0  0  0  0  0  0  0  0  0  0
    2.3971   -3.3481    0.0000 C   0  0  0  0  0  0  0  0  0  0  0  0
    1.0981   -2.5981    0.0000 F   0  0  0  0  0  0  0  0  0  0  0  0
    3.6962   -4.0981    0.0000 F   0  0  0  0  0  0  0  0  0  0  0  0
    1.6471   -4.6471    0.0000 C   0  0  0  0  0  0  0  0  0  0  0  0
    0.8971   -5.9462    0.0000 F   0  0  0  0  0  0  0  0  0  0  0  0
    2.9462   -5.3971    0.0000 F   0  0  0  0  0  0  0  0  0  0  0  0
    0.3481   -3.8971    0.0000 F   0  0  0  0  0  0  0  0  0  0  0  0
  1  2  1  0
  2  3  1  0
  3  4  2  0
  3  5  2  0
  3  6  1  0
  6  7  1  0
  6  8  1  0
  6  9  1  0
  9 10  1  0
  9 11  1  0
  9 12  1  0
 12 13  1  0
 12 14  1  0
 12 15  1  0
 15 16  1  0
 15 17  1  0
 15 18  1  0
M  END
$$$$

     RDKit          2D

 49 48  0  0  0  0  0  0  0  0999 V2000
    0.0000    0.0000    0.0000 C   0  0  0  0  0  0  0  0  0  0  0  0
    1.2990    0.7500    0.0000 C   0  0  0  0  0  0  0  0  0  0  0  0
    2.5981   -0.0000    0.0000 O   0  0  0  0  0  0  0  0  0  0  0  0
    3.8971    0.7500    0.0000 Si  0  0  0  0  0  4  0  0  0  0  0  0
    5.1962    1.5000    0.0000 C   0  0  0  0  0  0  0  0  0  0  0  0
    5.1962    3.0000    0.0000 C   0  0  0  0  0  0  0  0  0  0  0  0
    6.4952    3.7500    0.0000 C   0  0  0  0  0  0  0  0  0  0  0  0
    5.7452    5.0490    0.0000 F   0  0  0  0  0  0  0  0  0  0  0  0
    7.2452    2.4510    0.0000 F   0  0  0  0  0  0  0  0  0  0  0  0
    7.7942    4.5000    0.0000 C   0  0  0  0  0  0  0  0  0  0  0  0
    8.5442    3.2010    0.0000 F   0  0  0  0  0  0  0  0  0  0  0  0
    7.0442    5.7990    0.0000 F   0  0  0  0  0  0  0  0  0  0  0  0
    9.0933    5.2500    0.0000 C   0  0  0  0  0  0  0  0  0  0  0  0
    8.3433    6.5490    0.0000 F   0  0  0  0  0  0  0  0  0  0  0  0
    9.8433    3.9510    0.0000 F   0  0  0  0  0  0  0  0  0  0  0  0
   10.3923    6.0000    0.0000 C   0  0  0  0  0  0  0  0  0  0  0  0
   11.1423    4.7010    0.0000 F   0  0  0  0  0  0  0  0  0  0  0  0
    9.6423    7.2990    0.0000 F   0  0  0  0  0  0  0  0  0  0  0  0
   11.6913    6.7500    0.0000 C   0  0  0  0  0  0  0  0  0  0  0  0
   10.9413    8.0490    0.0000 F   0  0  0  0  0  0  0  0  0  0  0  0
   12.4413    5.4510    0.0000 F   0  0  0  0  0  0  0  0  0  0  0  0
   12.9904    7.5000    0.0000 C   0  0  0  0  0  0  0  0  0  0  0  0
   13.7404    6.2010    0.0000 F   0  0  0  0  0  0  0  0  0  0  0  0
   12.2404    8.7990    0.0000 F   0  0  0  0  0  0  0  0  0  0  0  0
   14.2894    8.2500    0.0000 C   0  0  0  0  0  0  0  0  0  0  0  0
   13.5394    9.5490    0.0000 F   0  0  0  0  0  0  0  0  0  0  0  0
   15.0394    6.9510    0.0000 F   0  0  0  0  0  0  0  0  0  0  0  0
   15.5885    9.0000    0.0000 C   0  0  0  0  0  0  0  0  0  0  0  0
   16.3385    7.7010    0.0000 F   0  0  0  0  0  0  0  0  0  0  0  0
   14.8385   10.2990    0.0000 F   0  0  0  0  0  0  0  0  0  0  0  0
   16.8875    9.7500    0.0000 C   0  0  0  0  0  0  0  0  0  0  0  0
   16.1375   11.0490    0.0000 F   0  0  0  0  0  0  0  0  0  0  0  0
   17.6375    8.4510    0.0000 F   0  0  0  0  0  0  0  0  0  0  0  0
   18.1865   10.5000    0.0000 C   0  0  0  0  0  0  0  0  0  0  0  0
   18.9365    9.2010    0.0000 F   0  0  0  0  0  0  0  0  0  0  0  0
   17.4365   11.7990    0.0000 F   0  0  0  0  0  0  0  0  0  0  0  0
   19.4856   11.2500    0.0000 C   0  0  0  0  0  0  0  0  0  0  0  0
   18.7356   12.5490    0.0000 F   0  0  0  0  0  0  0  0  0  0  0  0
   20.2356    9.9510    0.0000 F   0  0  0  0  0  0  0  0  0  0  0  0
   20.7846   12.0000    0.0000 C   0  0  0  0  0  0  0  0  0  0  0  0
   22.0836   12.7500    0.0000 F   0  0  0  0  0  0  0  0  0  0  0  0
   21.5346   10.7010    0.0000 F   0  0  0  0  0  0  0  0  0  0  0  0
   20.0346   13.2990    0.0000 F   0  0  0  0  0  0  0  0  0  0  0  0
    3.1471    2.0490    0.0000 O   0  0  0  0  0  0  0  0  0  0  0  0
    3.8971    3.3481    0.0000 C   0  0  0  0  0  0  0  0  0  0  0  0
    3.1471    4.6471    0.0000 C   0  0  0  0  0  0  0  0  0  0  0  0
    4.6471   -0.5490    0.0000 O   0  0  0  0  0  0  0  0  0  0  0  0
    6.1471   -0.5490    0.0000 C   0  0  0  0  0  0  0  0  0  0  0  0
    6.8971   -1.8481    0.0000 C   0  0  0  0  0  0  0  0  0  0  0  0
  1  2  1  0
  2  3  1  0
  3  4  1  0
  4  5  1  0
  5  6  1  0
  6  7  1  0
  7  8  1  0
  7  9  1  0
  7 10  1  0
 10 11  1  0
 10 12  1  0
 10 13  1  0
 13 14  1  0
 13 15  1  0
 13 16  1  0
 16 17  1  0
 16 18  1  0
 16 19  1  0
 19 20  1  0
 19 21  1  0
 19 22  1  0
 22 23  1  0
 22 24  1  0
 22 25  1  0
 25 26  1  0
 25 27  1  0
 25 28  1  0
 28 29  1  0
 28 30  1  0
 28 31  1  0
 31 32  1  0
 31 33  1  0
 31 34  1  0
 34 35  1  0
 34 36  1  0
 34 37  1  0
 37 38  1  0
 37 39  1  0
 37 40  1  0
 40 41  1  0
 40 42  1  0
 40 43  1  0
  4 44  1  0
 44 45  1  0
 45 46  1  0
  4 47  1  0
 47 48  1  0
 48 49  1  0
M  END
$$$$

     RDKit          2D

  9  8  0  0  0  0  0  0  0  0999 V2000
    0.0000    0.0000    0.0000 C   0  0  0  0  0  0  0  0  0  0  0  0
    1.2990    0.7500    0.0000 O   0  0  0  0  0  0  0  0  0  0  0  0
    2.5981   -0.0000    0.0000 C   0  0  0  0  0  0  0  0  0  0  0  0
    3.8971    0.7500    0.0000 C   0  0  0  0  0  0  0  0  0  0  0  0
    4.6471   -0.5490    0.0000 F   0  0  0  0  0  0  0  0  0  0  0  0
    3.1471    2.0490    0.0000 F   0  0  0  0  0  0  0  0  0  0  0  0
    5.1962    1.5000    0.0000 C   0  0  0  0  0  0  0  0  0  0  0  0
    5.1962    3.0000    0.0000 F   0  0  0  0  0  0  0  0  0  0  0  0
    6.4952    0.7500    0.0000 F   0  0  0  0  0  0  0  0  0  0  0  0
  1  2  1  0
  2  3  1  0
  3  4  1  0
  4  5  1  0
  4  6  1  0
  4  7  1  0
  7  8  1  0
  7  9  1  0
M  END
$$$$

     RDKit          2D

 27 26  0  0  0  0  0  0  0  0999 V2000
   -1.2990    0.7500    0.0000 O   0  0  0  0  0  0  0  0  0  0  0  0
    0.0000    0.0000    0.0000 C   0  0  0  0  0  0  0  0  0  0  0  0
    1.2990    0.7500    0.0000 C   0  0  0  0  0  0  0  0  0  0  0  0
    1.2990    2.2500    0.0000 I   0  0  0  0  0  0  0  0  0  0  0  0
    2.5981   -0.0000    0.0000 C   0  0  0  0  0  0  0  0  0  0  0  0
    3.8971    0.7500    0.0000 C   0  0  0  0  0  0  0  0  0  0  0  0
    4.6471   -0.5490    0.0000 F   0  0  0  0  0  0  0  0  0  0  0  0
    3.1471    2.0490    0.0000 F   0  0  0  0  0  0  0  0  0  0  0  0
    5.1962    1.5000    0.0000 C   0  0  0  0  0  0  0  0  0  0  0  0
    4.4462    2.7990    0.0000 F   0  0  0  0  0  0  0  0  0  0  0  0
    5.9462    0.2010    0.0000 F   0  0  0  0  0  0  0  0  0  0  0  0
    6.4952    2.2500    0.0000 C   0  0  0  0  0  0  0  0  0  0  0  0
    7.2452    0.9510    0.0000 F   0  0  0  0  0  0  0  0  0  0  0  0
    5.7452    3.5490    0.0000 F   0  0  0  0  0  0  0  0  0  0  0  0
    7.7942    3.0000    0.0000 C   0  0  0  0  0  0  0  0  0  0  0  0
    7.0442    4.2990    0.0000 F   0  0  0  0  0  0  0  0  0  0  0  0
    8.5442    1.7010    0.0000 F   0  0  0  0  0  0  0  0  0  0  0  0
    9.0933    3.7500    0.0000 C   0  0  0  0  0  0  0  0  0  0  0  0
    9.8433    2.4510    0.0000 F   0  0  0  0  0  0  0  0  0  0  0  0
    8.3433    5.0490    0.0000 F   0  0  0  0  0  0  0  0  0  0  0  0
   10.3923    4.5000    0.0000 C   0  0  0  0  0  0  0  0  0  0  0  0
    9.6423    5.7990    0.0000 F   0  0  0  0  0  0  0  0  0  0  0  0
   11.1423    3.2010    0.0000 F   0  0  0  0  0  0  0  0  0  0  0  0
   11.6913    5.2500    0.0000 C   0  0  0  0  0  0  0  0  0  0  0  0
   12.9904    6.0000    0.0000 F   0  0  0  0  0  0  0  0  0  0  0  0
   12.4413    3.9510    0.0000 F   0  0  0  0  0  0  0  0  0  0  0  0
   10.9413    6.5490    0.0000 F   0  0  0  0  0  0  0  0  0  0  0  0
  1  2  1  0
  2  3  1  0
  3  4  1  0
  3  5  1  0
  5  6  1  0
  6  7  1  0
  6  8  1  0
  6  9  1  0
  9 10  1  0
  9 11  1  0
  9 12  1  0
 12 13  1  0
 12 14  1  0
 12 15  1  0
 15 16  1  0
 15 17  1  0
 15 18  1  0
 18 19  1  0
 18 20  1  0
 18 21  1  0
 21 22  1  0
 21 23  1  0
 21 24  1  0
 24 25  1  0
 24 26  1  0
 24 27  1  0
M  END
$$$$

     RDKit          2D

 23 24  0  0  0  0  0  0  0  0999 V2000
    0.7500   -1.2990    0.0000 O   0  0  0  0  0  0  0  0  0  0  0  0
    1.5000   -2.5981    0.0000 C   0  0  0  0  0  0  0  0  0  0  0  0
    3.0000   -2.5981    0.0000 N   0  0  0  0  0  0  0  0  0  0  0  0
    3.7500   -1.2990    0.0000 C   0  0  0  0  0  0  0  0  0  0  0  0
    5.2500   -1.2990    0.0000 C   0  0  0  0  0  0  0  0  0  0  0  0
    6.0000   -2.5981    0.0000 O   0  0  0  0  0  0  0  0  0  0  0  0
    5.2500   -3.8971    0.0000 C   0  0  0  0  0  0  0  0  0  0  0  0
    3.7500   -3.8971    0.0000 C   0  0  0  0  0  0  0  0  0  0  0  0
    0.7500   -3.8971    0.0000 C   0  0  0  0  0  0  0  0  0  0  0  0
    0.1134   -3.4174    0.0000 F   0  0  0  0  0  0  0  0  0  0  0  0
    2.0490   -4.6471    0.0000 F   0  0  0  0  0  0  0  0  0  0  0  0
   -0.0000   -5.1962    0.0000 C   0  0  0  0  0  0  0  0  0  0  0  0
    1.3703   -5.8063    0.0000 F   0  0  0  0  0  0  0  0  0  0  0  0
   -0.4635   -6.6227    0.0000 O   0  0  0  0  0  0  0  0  0  0  0  0
   -1.9635   -6.6227    0.0000 C   0  0  0  0  0  0  0  0  0  0  0  0
   -1.8067   -8.1145    0.0000 F   0  0  0  0  0  0  0  0  0  0  0  0
   -3.4307   -6.9346    0.0000 F   0  0  0  0  0  0  0  0  0  0  0  0
   -2.4271   -5.1962    0.0000 C   0  0  0  0  0  0  0  0  0  0  0  0
   -3.7974   -5.8063    0.0000 F   0  0  0  0  0  0  0  0  0  0  0  0
   -3.1771   -3.8971    0.0000 F   0  0  0  0  0  0  0  0  0  0  0  0
   -1.2135   -4.3145    0.0000 C   0  0  0  0  0  0  0  0  0  0  0  0
   -2.2172   -3.1998    0.0000 F   0  0  0  0  0  0  0  0  0  0  0  0
   -0.7563   -3.6615    0.0000 F   0  0  0  0  0  0  0  0  0  0  0  0
  1  2  2  0
  2  3  1  0
  3  4  1  0
  4  5  1  0
  5  6  1  0
  6  7  1  0
  7  8  1  0
  2  9  1  0
  9 10  1  0
  9 11  1  0
  9 12  1  0
 12 13  1  0
 12 14  1  0
 14 15  1  0
 15 16  1  0
 15 17  1  0
 15 18  1  0
 18 19  1  0
 18 20  1  0
 18 21  1  0
 21 22  1  0
 21 23  1  0
  8  3  1  0
 21 12  1  0
M  END
$$$$

     RDKit          2D

 70 72  0  0  0  0  0  0  0  0999 V2000
    0.8578    2.6401    0.0000 C   0  0  0  0  0  0  0  0  0  0  0  0
    0.3943    1.2135    0.0000 C   0  0  0  0  0  0  0  0  0  0  0  0
    1.2760    0.0000    0.0000 C   0  0  0  0  0  0  0  0  0  0  0  0
    0.3943   -1.2135    0.0000 C   0  0  0  0  0  0  0  0  0  0  0  0
   -1.0323   -0.7500    0.0000 C   0  0  0  0  0  0  0  0  0  0  0  0
   -1.9140    0.4635    0.0000 C   0  0  0  0  0  0  0  0  0  0  0  0
   -3.4140    0.4635    0.0000 C   0  0  0  0  0  0  0  0  0  0  0  0
   -4.1640   -0.8355    0.0000 O   0  0  0  0  0  0  0  0  0  0  0  0
   -4.1640    1.7626    0.0000 C   0  0  0  0  0  0  0  0  0  0  0  0
   -5.4630    1.0126    0.0000 F   0  0  0  0  0  0  0  0  0  0  0  0
   -2.8649    2.5126    0.0000 F   0  0  0  0  0  0  0  0  0  0  0  0
   -4.9140    3.0616    0.0000 C   0  0  0  0  0  0  0  0  0  0  0  0
   -3.6149    3.8116    0.0000 F   0  0  0  0  0  0  0  0  0  0  0  0
   -6.2130    2.3116    0.0000 F   0  0  0  0  0  0  0  0  0  0  0  0
   -5.6640    4.3606    0.0000 C   0  0  0  0  0  0  0  0  0  0  0  0
   -6.4140    5.6597    0.0000 F   0  0  0  0  0  0  0  0  0  0  0  0
   -6.9630    3.6106    0.0000 F   0  0  0  0  0  0  0  0  0  0  0  0
   -4.3649    5.1106    0.0000 F   0  0  0  0  0  0  0  0  0  0  0  0
   -1.0323    1.6771    0.0000 C   0  0  0  0  0  0  0  0  0  0  0  0
   -1.4958    3.1036    0.0000 O   0  0  0  0  0  0  0  0  0  0  0  0
   -1.0323    0.7500    0.0000 C   0  0  0  0  0  0  0  0  0  0  0  0
   -2.5177    0.9588    0.0000 C   0  0  0  0  0  0  0  0  0  0  0  0
   -1.6899    2.0982    0.0000 C   0  0  0  0  0  0  0  0  0  0  0  0
    0.8578   10.5133    0.0000 C   0  0  0  0  0  0  0  0  0  0  0  0
    0.3943    9.0867    0.0000 C   0  0  0  0  0  0  0  0  0  0  0  0
    1.2760    7.8732    0.0000 C   0  0  0  0  0  0  0  0  0  0  0  0
    0.3943    6.6597    0.0000 C   0  0  0  0  0  0  0  0  0  0  0  0
   -1.0323    7.1232    0.0000 C   0  0  0  0  0  0  0  0  0  0  0  0
   -1.9140    8.3367    0.0000 C   0  0  0  0  0  0  0  0  0  0  0  0
   -3.4140    8.3367    0.0000 C   0  0  0  0  0  0  0  0  0  0  0  0
   -4.1640    7.0377    0.0000 O   0  0  0  0  0  0  0  0  0  0  0  0
   -4.1640    9.6358    0.0000 C   0  0  0  0  0  0  0  0  0  0  0  0
   -5.4630    8.8858    0.0000 F   0  0  0  0  0  0  0  0  0  0  0  0
   -2.8649   10.3858    0.0000 F   0  0  0  0  0  0  0  0  0  0  0  0
   -4.9140   10.9348    0.0000 C   0  0  0  0  0  0  0  0  0  0  0  0
   -3.6149   11.6848    0.0000 F   0  0  0  0  0  0  0  0  0  0  0  0
   -6.2130   10.1848    0.0000 F   0  0  0  0  0  0  0  0  0  0  0  0
   -5.6640   12.2338    0.0000 C   0  0  0  0  0  0  0  0  0  0  0  0
   -6.4140   13.5329    0.0000 F   0  0  0  0  0  0  0  0  0  0  0  0
   -6.9630   11.4838    0.0000 F   0  0  0  0  0  0  0  0  0  0  0  0
   -4.3649   12.9838    0.0000 F   0  0  0  0  0  0  0  0  0  0  0  0
   -1.0323    9.5503    0.0000 C   0  0  0  0  0  0  0  0  0  0  0  0
   -1.4958   10.9768    0.0000 O   0  0  0  0  0  0  0  0  0  0  0  0
   -1.0323    8.6232    0.0000 C   0  0  0  0  0  0  0  0  0  0  0  0
   -2.5177    8.8320    0.0000 C   0  0  0  0  0  0  0  0  0  0  0  0
   -1.6899    9.9714    0.0000 C   0  0  0  0  0  0  0  0  0  0  0  0
   10.0968    2.6401    0.0000 C   0  0  0  0  0  0  0  0  0  0  0  0
    9.6333    1.2135    0.0000 C   0  0  0  0  0  0  0  0  0  0  0  0
   10.5150    0.0000    0.0000 C   0  0  0  0  0  0  0  0  0  0  0  0
    9.6333   -1.2135    0.0000 C   0  0  0  0  0  0  0  0  0  0  0  0
    8.2067   -0.7500    0.0000 C   0  0  0  0  0  0  0  0  0  0  0  0
    7.3250    0.4635    0.0000 C   0  0  0  0  0  0  0  0  0  0  0  0
    5.8250    0.4635    0.0000 C   0  0  0  0  0  0  0  0  0  0  0  0
    5.0750   -0.8355    0.0000 O   0  0  0  0  0  0  0  0  0  0  0  0
    5.0750    1.7626    0.0000 C   0  0  0  0  0  0  0  0  0  0  0  0
    3.7760    1.0126    0.0000 F   0  0  0  0  0  0  0  0  0  0  0  0
    6.3741    2.5126    0.0000 F   0  0  0  0  0  0  0  0  0  0  0  0
    4.3250    3.0616    0.0000 C   0  0  0  0  0  0  0  0  0  0  0  0
    5.6241    3.8116    0.0000 F   0  0  0  0  0  0  0  0  0  0  0  0
    3.0260    2.3116    0.0000 F   0  0  0  0  0  0  0  0  0  0  0  0
    3.5750    4.3606    0.0000 C   0  0  0  0  0  0  0  0  0  0  0  0
    2.8250    5.6597    0.0000 F   0  0  0  0  0  0  0  0  0  0  0  0
    2.2760    3.6106    0.0000 F   0  0  0  0  0  0  0  0  0  0  0  0
    4.8741    5.1106    0.0000 F   0  0  0  0  0  0  0  0  0  0  0  0
    8.2067    1.6771    0.0000 C   0  0  0  0  0  0  0  0  0  0  0  0
    7.7432    3.1036    0.0000 O   0  0  0  0  0  0  0  0  0  0  0  0
    8.2067    0.7500    0.0000 C   0  0  0  0  0  0  0  0  0  0  0  0
    6.7213    0.9588    0.0000 C   0  0  0  0  0  0  0  0  0  0  0  0
    7.5491    2.0982    0.0000 C   0  0  0  0  0  0  0  0  0  0  0  0
    0.0000   14.5329    0.0000 Pr  0  0  0  0  0 15  0  0  0  0  0  0
  1  2  1  0
  2  3  1  0
  3  4  1  0
  4  5  1  0
  5  6  1  0
  6  7  2  0
  7  8  1  0
  7  9  1  0
  9 10  1  0
  9 11  1  0
  9 12  1  0
 12 13  1  0
 12 14  1  0
 12 15  1  0
 15 16  1  0
 15 17  1  0
 15 18  1  0
  6 19  1  0
 19 20  2  0
  5 21  1  0
 21 22  1  0
 21 23  1  0
 24 25  1  0
 25 26  1  0
 26 27  1  0
 27 28  1  0
 28 29  1  0
 29 30  2  0
 30 31  1  0
 30 32  1  0
 32 33  1  0
 32 34  1  0
 32 35  1  0
 35 36  1  0
 35 37  1  0
 35 38  1  0
 38 39  1  0
 38 40  1  0
 38 41  1  0
 29 42  1  0
 42 43  2  0
 28 44  1  0
 44 45  1  0
 44 46  1  0
 47 48  1  0
 48 49  1  0
 49 50  1  0
 50 51  1  0
 51 52  1  0
 52 53  2  0
 53 54  1  0
 53 55  1  0
 55 56  1  0
 55 57  1  0
 55 58  1  0
 58 59  1  0
 58 60  1  0
 58 61  1  0
 61 62  1  0
 61 63  1  0
 61 64  1  0
 52 65  1  0
 65 66  2  0
 51 67  1  0
 67 68  1  0
 67 69  1  0
 19  2  1  0
 42 25  1  0
 65 48  1  0
 21  2  1  0
 44 25  1  0
 67 48  1  0
M  CHG  4   8  -1  31  -1  54  -1  70   3
M  END
$$$$

     RDKit          2D

 24 23  0  0  0  0  0  0  0  0999 V2000
    1.2760    0.0000    0.0000 C   0  0  0  0  0  0  0  0  0  0  0  0
    0.3943    1.2135    0.0000 C   0  0  0  0  0  0  0  0  0  0  0  0
   -1.0323    0.7500    0.0000 C   0  0  0  0  0  0  0  0  0  0  0  0
   -1.0323   -0.7500    0.0000 C   0  0  0  0  0  0  0  0  0  0  0  0
    0.3943   -1.2135    0.0000 C   0  0  0  0  0  0  0  0  0  0  0  0
    8.7712   -3.7500    0.0000 O   0  0  0  0  0  0  0  0  0  0  0  0
    7.4721   -3.0000    0.0000 C   0  0  0  0  0  0  0  0  0  0  0  0
    6.1731   -3.7500    0.0000 C   0  0  0  0  0  0  0  0  0  0  0  0
    5.4231   -2.4510    0.0000 F   0  0  0  0  0  0  0  0  0  0  0  0
    6.9231   -5.0490    0.0000 F   0  0  0  0  0  0  0  0  0  0  0  0
    4.8741   -4.5000    0.0000 C   0  0  0  0  0  0  0  0  0  0  0  0
    4.1241   -3.2010    0.0000 F   0  0  0  0  0  0  0  0  0  0  0  0
    5.6241   -5.7990    0.0000 F   0  0  0  0  0  0  0  0  0  0  0  0
    3.5750   -5.2500    0.0000 C   0  0  0  0  0  0  0  0  0  0  0  0
    2.2760   -6.0000    0.0000 F   0  0  0  0  0  0  0  0  0  0  0  0
    4.3250   -6.5490    0.0000 F   0  0  0  0  0  0  0  0  0  0  0  0
    2.8250   -3.9510    0.0000 F   0  0  0  0  0  0  0  0  0  0  0  0
    7.4721   -1.5000    0.0000 Mo  0  0  0  0  0  4  0  0  0  0  0  0
    7.4721    0.0000    0.0000 C   0  0  0  0  0  0  0  0  0  0  0  0
    7.4721    1.5000    0.0000 O   0  0  0  0  0  0  0  0  0  0  0  0
    5.9721   -1.5000    0.0000 C   0  0  0  0  0  0  0  0  0  0  0  0
    4.4721   -1.5000    0.0000 O   0  0  0  0  0  0  0  0  0  0  0  0
    8.9721   -1.5000    0.0000 C   0  0  0  0  0  0  0  0  0  0  0  0
   10.4721   -1.5000    0.0000 O   0  0  0  0  0  0  0  0  0  0  0  0
  1  2  2  0
  2  3  1  0
  3  4  1  0
  4  5  2  0
  6  7  2  0
  7  8  1  0
  8  9  1  0
  8 10  1  0
  8 11  1  0
 11 12  1  0
 11 13  1  0
 11 14  1  0
 14 15  1  0
 14 16  1  0
 14 17  1  0
  7 18  1  0
 18 19  1  0
 19 20  3  0
 18 21  1  0
 21 22  3  0
 18 23  1  0
 23 24  3  0
  5  1  1  0
M  CHG  3  20   1  22   1  24   1
M  END
$$$$

     RDKit          2D

 13 13  0  0  0  0  0  0  0  0999 V2000
    2.7760    0.0000    0.0000 N   0  0  0  0  0  0  0  0  0  0  0  0
    1.2760    0.0000    0.0000 C   0  0  0  0  0  0  0  0  0  0  0  0
    0.3943    1.2135    0.0000 N   0  0  0  0  0  0  0  0  0  0  0  0
   -1.0323    0.7500    0.0000 N   0  0  0  0  0  0  0  0  0  0  0  0
   -1.0323   -0.7500    0.0000 C   0  0  0  0  0  0  0  0  0  0  0  0
   -2.2458   -1.6317    0.0000 C   0  0  0  0  0  0  0  0  0  0  0  0
   -1.3641   -2.8452    0.0000 F   0  0  0  0  0  0  0  0  0  0  0  0
   -3.1275   -0.4182    0.0000 F   0  0  0  0  0  0  0  0  0  0  0  0
   -3.4593   -2.5134    0.0000 C   0  0  0  0  0  0  0  0  0  0  0  0
   -4.6729   -3.3950    0.0000 F   0  0  0  0  0  0  0  0  0  0  0  0
   -2.5777   -3.7269    0.0000 F   0  0  0  0  0  0  0  0  0  0  0  0
   -4.3410   -1.2998    0.0000 F   0  0  0  0  0  0  0  0  0  0  0  0
    0.3943   -1.2135    0.0000 S   0  0  0  0  0  0  0  0  0  0  0  0
  1  2  1  0
  2  3  2  0
  3  4  1  0
  4  5  2  0
  5  6  1  0
  6  7  1  0
  6  8  1  0
  6  9  1  0
  9 10  1  0
  9 11  1  0
  9 12  1  0
  5 13  1  0
 13  2  1  0
M  END
$$$$

     RDKit          2D

 15 14  0  0  0  0  0  0  0  0999 V2000
   -1.8481   -1.2990    0.0000 O   0  0  0  0  0  0  0  0  0  0  0  0
   -2.5981    0.0000    0.0000 S   0  0  0  0  0  0  0  0  0  0  0  0
   -3.3481    1.2990    0.0000 O   0  0  0  0  0  0  0  0  0  0  0  0
   -1.2990    0.7500    0.0000 O   0  0  0  0  0  0  0  0  0  0  0  0
    0.0000    0.0000    0.0000 C   0  0  0  0  0  0  0  0  0  0  0  0
    1.2990    0.7500    0.0000 C   0  0  0  0  0  0  0  0  0  0  0  0
    2.0490   -0.5490    0.0000 F   0  0  0  0  0  0  0  0  0  0  0  0
    0.5490    2.0490    0.0000 F   0  0  0  0  0  0  0  0  0  0  0  0
    2.5981    1.5000    0.0000 C   0  0  0  0  0  0  0  0  0  0  0  0
    2.5981    3.0000    0.0000 F   0  0  0  0  0  0  0  0  0  0  0  0
    3.8971    0.7500    0.0000 F   0  0  0  0  0  0  0  0  0  0  0  0
   -3.8971   -0.7500    0.0000 C   0  0  0  0  0  0  0  0  0  0  0  0
   -3.1471   -2.0490    0.0000 F   0  0  0  0  0  0  0  0  0  0  0  0
   -4.6471    0.5490    0.0000 F   0  0  0  0  0  0  0  0  0  0  0  0
   -5.1962   -1.5000    0.0000 F   0  0  0  0  0  0  0  0  0  0  0  0
  1  2  2  0
  2  3  2  0
  2  4  1  0
  4  5  1  0
  5  6  1  0
  6  7  1  0
  6  8  1  0
  6  9  1  0
  9 10  1  0
  9 11  1  0
  2 12  1  0
 12 13  1  0
 12 14  1  0
 12 15  1  0
M  END
$$$$

     RDKit          2D

 29 30  0  0  0  0  0  0  0  0999 V2000
   -0.7500   -3.8971    0.0000 O   0  0  0  0  0  0  0  0  0  0  0  0
    0.7500   -3.8971    0.0000 C   0  0  0  0  0  0  0  0  0  0  0  0
    1.5000   -2.5981    0.0000 N   0  0  0  0  0  0  0  0  0  0  0  0
    0.7500   -1.2990    0.0000 C   0  0  0  0  0  0  0  0  0  0  0  0
    1.5000    0.0000    0.0000 C   0  0  0  0  0  0  0  0  0  0  0  0
    0.7500    1.2990    0.0000 C   0  0  0  0  0  0  0  0  0  0  0  0
   -0.7500    1.2990    0.0000 C   0  0  0  0  0  0  0  0  0  0  0  0
   -1.5000    2.5981    0.0000 O   0  0  0  0  0  0  0  0  0  0  0  0
   -0.7500    3.8971    0.0000 C   0  0  0  0  0  0  0  0  0  0  0  0
    0.5490    3.1471    0.0000 F   0  0  0  0  0  0  0  0  0  0  0  0
   -2.0490    4.6471    0.0000 F   0  0  0  0  0  0  0  0  0  0  0  0
    0.0000    5.1962    0.0000 C   0  0  0  0  0  0  0  0  0  0  0  0
   -1.2990    5.9462    0.0000 F   0  0  0  0  0  0  0  0  0  0  0  0
    1.2990    4.4462    0.0000 F   0  0  0  0  0  0  0  0  0  0  0  0
    0.7500    6.4952    0.0000 C   0  0  0  0  0  0  0  0  0  0  0  0
   -0.5490    7.2452    0.0000 F   0  0  0  0  0  0  0  0  0  0  0  0
    2.0490    5.7452    0.0000 F   0  0  0  0  0  0  0  0  0  0  0  0
    1.5000    7.7942    0.0000 C   0  0  0  0  0  0  0  0  0  0  0  0
    2.2500    9.0933    0.0000 F   0  0  0  0  0  0  0  0  0  0  0  0
    2.7990    7.0442    0.0000 F   0  0  0  0  0  0  0  0  0  0  0  0
    0.2010    8.5442    0.0000 F   0  0  0  0  0  0  0  0  0  0  0  0
   -1.5000    0.0000    0.0000 C   0  0  0  0  0  0  0  0  0  0  0  0
   -0.7500   -1.2990    0.0000 C   0  0  0  0  0  0  0  0  0  0  0  0
    1.5000   -5.1962    0.0000 C   0  0  0  0  0  0  0  0  0  0  0  0
    0.7500   -6.4952    0.0000 C   0  0  0  0  0  0  0  0  0  0  0  0
    1.5000   -7.7942    0.0000 C   0  0  0  0  0  0  0  0  0  0  0  0
    3.0000   -7.7942    0.0000 C   0  0  0  0  0  0  0  0  0  0  0  0
    3.7500   -6.4952    0.0000 N   0  0  0  0  0  0  0  0  0  0  0  0
    3.0000   -5.1962    0.0000 C   0  0  0  0  0  0  0  0  0  0  0  0
  1  2  2  0
  2  3  1  0
  3  4  1  0
  4  5  2  0
  5  6  1  0
  6  7  2  0
  7  8  1  0
  8  9  1  0
  9 10  1  0
  9 11  1  0
  9 12  1  0
 12 13  1  0
 12 14  1  0
 12 15  1  0
 15 16  1  0
 15 17  1  0
 15 18  1  0
 18 19  1  0
 18 20  1  0
 18 21  1  0
  7 22  1  0
 22 23  2  0
  2 24  1  0
 24 25  2  0
 25 26  1  0
 26 27  2  0
 27 28  1  0
 28 29  2  0
 23  4  1  0
 29 24  1  0
M  END
$$$$

     RDKit          2D

 39 38  0  0  0  0  0  0  0  0999 V2000
    0.0000    0.0000    0.0000 C   0  0  0  0  0  0  0  0  0  0  0  0
    1.2990    0.7500    0.0000 C   0  0  0  0  0  0  0  0  0  0  0  0
    2.5981   -0.0000    0.0000 C   0  0  0  0  0  0  0  0  0  0  0  0
    3.8971    0.7500    0.0000 C   0  0  0  0  0  0  0  0  0  0  0  0
    5.1962   -0.0000    0.0000 C   0  0  0  0  0  0  0  0  0  0  0  0
    6.4952    0.7500    0.0000 C   0  0  0  0  0  0  0  0  0  0  0  0
    7.7942   -0.0000    0.0000 C   0  0  0  0  0  0  0  0  0  0  0  0
    9.0933    0.7500    0.0000 C   0  0  0  0  0  0  0  0  0  0  0  0
   10.3923   -0.0000    0.0000 C   0  0  0  0  0  0  0  0  0  0  0  0
   11.6913    0.7500    0.0000 C   0  0  0  0  0  0  0  0  0  0  0  0
   12.9904   -0.0000    0.0000 C   0  0  0  0  0  0  0  0  0  0  0  0
   14.2894    0.7500    0.0000 C   0  0  0  0  0  0  0  0  0  0  0  0
   15.5885   -0.0000    0.0000 C   0  0  0  0  0  0  0  0  0  0  0  0
   16.8875    0.7500    0.0000 C   0  0  0  0  0  0  0  0  0  0  0  0
   18.1865   -0.0000    0.0000 C   0  0  0  0  0  0  0  0  0  0  0  0
   18.9365    1.2990    0.0000 F   0  0  0  0  0  0  0  0  0  0  0  0
   17.4365   -1.2990    0.0000 F   0  0  0  0  0  0  0  0  0  0  0  0
   19.4856   -0.7500    0.0000 C   0  0  0  0  0  0  0  0  0  0  0  0
   18.7356   -2.0490    0.0000 F   0  0  0  0  0  0  0  0  0  0  0  0
   20.2356    0.5490    0.0000 F   0  0  0  0  0  0  0  0  0  0  0  0
   20.7846   -1.5000    0.0000 C   0  0  0  0  0  0  0  0  0  0  0  0
   21.5346   -0.2010    0.0000 F   0  0  0  0  0  0  0  0  0  0  0  0
   20.0346   -2.7990    0.0000 F   0  0  0  0  0  0  0  0  0  0  0  0
   22.0836   -2.2500    0.0000 C   0  0  0  0  0  0  0  0  0  0  0  0
   21.3336   -3.5490    0.0000 F   0  0  0  0  0  0  0  0  0  0  0  0
   22.8336   -0.9510    0.0000 F   0  0  0  0  0  0  0  0  0  0  0  0
   23.3827   -3.0000    0.0000 C   0  0  0  0  0  0  0  0  0  0  0  0
   24.1327   -1.7010    0.0000 F   0  0  0  0  0  0  0  0  0  0  0  0
   22.6327   -4.2990    0.0000 F   0  0  0  0  0  0  0  0  0  0  0  0
   24.6817   -3.7500    0.0000 C   0  0  0  0  0  0  0  0  0  0  0  0
   23.9317   -5.0490    0.0000 F   0  0  0  0  0  0  0  0  0  0  0  0
   25.4317   -2.4510    0.0000 F   0  0  0  0  0  0  0  0  0  0  0  0
   25.9808   -4.5000    0.0000 C   0  0  0  0  0  0  0  0  0  0  0  0
   26.7308   -3.2010    0.0000 F   0  0  0  0  0  0  0  0  0  0  0  0
   25.2308   -5.7990    0.0000 F   0  0  0  0  0  0  0  0  0  0  0  0
   27.2798   -5.2500    0.0000 C   0  0  0  0  0  0  0  0  0  0  0  0
   28.5788   -6.0000    0.0000 F   0  0  0  0  0  0  0  0  0  0  0  0
   26.5298   -6.5490    0.0000 F   0  0  0  0  0  0  0  0  0  0  0  0
   28.0298   -3.9510    0.0000 F   0  0  0  0  0  0  0  0  0  0  0  0
  1  2  1  0
  2  3  1  0
  3  4  1  0
  4  5  1  0
  5  6  1  0
  6  7  1  0
  7  8  1  0
  8  9  1  0
  9 10  1  0
 10 11  1  0
 11 12  1  0
 12 13  1  0
 13 14  1  0
 14 15  1  0
 15 16  1  0
 15 17  1  0
 15 18  1  0
 18 19  1  0
 18 20  1  0
 18 21  1  0
 21 22  1  0
 21 23  1  0
 21 24  1  0
 24 25  1  0
 24 26  1  0
 24 27  1  0
 27 28  1  0
 27 29  1  0
 27 30  1  0
 30 31  1  0
 30 32  1  0
 30 33  1  0
 33 34  1  0
 33 35  1  0
 33 36  1  0
 36 37  1  0
 36 38  1  0
 36 39  1  0
M  END
$$$$

     RDKit          2D

 25 26  0  0  0  0  0  0  0  0999 V2000
    3.0000    0.0000    0.0000 C   0  0  0  0  0  0  0  0  0  0  0  0
    1.5000    0.0000    0.0000 C   0  0  0  0  0  0  0  0  0  0  0  0
    0.7500   -1.2990    0.0000 C   0  0  0  0  0  0  0  0  0  0  0  0
   -0.7500   -1.2990    0.0000 C   0  0  0  0  0  0  0  0  0  0  0  0
   -1.5000    0.0000    0.0000 C   0  0  0  0  0  0  0  0  0  0  0  0
   -2.9672    0.3119    0.0000 S   0  0  0  0  0  0  0  0  0  0  0  0
   -3.1240    1.8037    0.0000 C   0  0  0  0  0  0  0  0  0  0  0  0
   -4.4231    2.5537    0.0000 N   0  0  0  0  0  0  0  0  0  0  0  0
   -4.4231    4.0537    0.0000 C   0  0  0  0  0  0  0  0  0  0  0  0
   -3.1240    4.8037    0.0000 O   0  0  0  0  0  0  0  0  0  0  0  0
   -5.7221    4.8037    0.0000 C   0  0  0  0  0  0  0  0  0  0  0  0
   -4.9721    6.1027    0.0000 F   0  0  0  0  0  0  0  0  0  0  0  0
   -6.4721    3.5046    0.0000 F   0  0  0  0  0  0  0  0  0  0  0  0
   -7.0211    5.5537    0.0000 C   0  0  0  0  0  0  0  0  0  0  0  0
   -7.7711    4.2546    0.0000 F   0  0  0  0  0  0  0  0  0  0  0  0
   -6.2711    6.8527    0.0000 F   0  0  0  0  0  0  0  0  0  0  0  0
   -8.3202    6.3037    0.0000 C   0  0  0  0  0  0  0  0  0  0  0  0
   -9.0702    5.0046    0.0000 F   0  0  0  0  0  0  0  0  0  0  0  0
   -7.5702    7.6027    0.0000 F   0  0  0  0  0  0  0  0  0  0  0  0
   -9.6192    7.0537    0.0000 C   0  0  0  0  0  0  0  0  0  0  0  0
  -10.9182    6.3037    0.0000 F   0  0  0  0  0  0  0  0  0  0  0  0
   -9.6192    8.5537    0.0000 F   0  0  0  0  0  0  0  0  0  0  0  0
   -1.7537    2.4138    0.0000 N   0  0  0  0  0  0  0  0  0  0  0  0
   -0.7500    1.2990    0.0000 C   0  0  0  0  0  0  0  0  0  0  0  0
    0.7500    1.2990    0.0000 C   0  0  0  0  0  0  0  0  0  0  0  0
  1  2  1  0
  2  3  2  0
  3  4  1  0
  4  5  2  0
  5  6  1  0
  6  7  1  0
  7  8  1  0
  8  9  1  0
  9 10  2  0
  9 11  1  0
 11 12  1  0
 11 13  1  0
 11 14  1  0
 14 15  1  0
 14 16  1  0
 14 17  1  0
 17 18  1  0
 17 19  1  0
 17 20  1  0
 20 21  1  0
 20 22  1  0
  7 23  2  0
 23 24  1  0
 24 25  2  0
 25  2  1  0
 24  5  1  0
M  END
$$$$

     RDKit          2D

  8  7  0  0  0  0  0  0  0  0999 V2000
   -1.5000    0.0000    0.0000 F   0  0  0  0  0  0  0  0  0  0  0  0
    0.0000    0.0000    0.0000 C   0  0  0  0  0  0  0  0  0  0  0  0
    0.0000    1.5000    0.0000 F   0  0  0  0  0  0  0  0  0  0  0  0
   -0.0000   -1.5000    0.0000 F   0  0  0  0  0  0  0  0  0  0  0  0
    1.5000    0.0000    0.0000 C   0  0  0  0  0  0  0  0  0  0  0  0
    3.0000    0.0000    0.0000 F   0  0  0  0  0  0  0  0  0  0  0  0
    1.5000   -1.5000    0.0000 F   0  0  0  0  0  0  0  0  0  0  0  0
    1.5000    1.5000    0.0000 F   0  0  0  0  0  0  0  0  0  0  0  0
  1  2  1  0
  2  3  1  0
  2  4  1  0
  2  5  1  0
  5  6  1  0
  5  7  1  0
  5  8  1  0
M  END
$$$$

     RDKit          2D

 26 27  0  0  0  0  0  0  0  0999 V2000
    7.5000   -2.5981    0.0000 N   0  0  0  0  0  0  0  0  0  0  0  0
    6.0000   -2.5981    0.0000 C   0  0  0  0  0  0  0  0  0  0  0  0
    5.2500   -3.8971    0.0000 S   0  0  0  0  0  0  0  0  0  0  0  0
    5.2500   -1.2990    0.0000 N   0  0  0  0  0  0  0  0  0  0  0  0
    3.7500   -1.2990    0.0000 N   0  0  0  0  0  0  0  0  0  0  0  0
    3.0000    0.0000    0.0000 C   0  0  0  0  0  0  0  0  0  0  0  0
    1.5000    0.0000    0.0000 C   0  0  0  0  0  0  0  0  0  0  0  0
    0.7500   -1.2990    0.0000 N   0  0  0  0  0  0  0  0  0  0  0  0
   -0.7500   -1.2990    0.0000 C   0  0  0  0  0  0  0  0  0  0  0  0
   -1.5000    0.0000    0.0000 C   0  0  0  0  0  0  0  0  0  0  0  0
   -0.7500    1.2990    0.0000 C   0  0  0  0  0  0  0  0  0  0  0  0
   -1.5000    2.5981    0.0000 C   0  0  0  0  0  0  0  0  0  0  0  0
   -3.0000    2.5981    0.0000 C   0  0  0  0  0  0  0  0  0  0  0  0
   -3.0000    4.0981    0.0000 F   0  0  0  0  0  0  0  0  0  0  0  0
   -3.0000    1.0981    0.0000 F   0  0  0  0  0  0  0  0  0  0  0  0
   -4.5000    2.5981    0.0000 C   0  0  0  0  0  0  0  0  0  0  0  0
   -4.5000    1.0981    0.0000 F   0  0  0  0  0  0  0  0  0  0  0  0
   -4.5000    4.0981    0.0000 F   0  0  0  0  0  0  0  0  0  0  0  0
   -6.0000    2.5981    0.0000 C   0  0  0  0  0  0  0  0  0  0  0  0
   -7.5000    2.5981    0.0000 F   0  0  0  0  0  0  0  0  0  0  0  0
   -6.0000    4.0981    0.0000 F   0  0  0  0  0  0  0  0  0  0  0  0
   -6.0000    1.0981    0.0000 F   0  0  0  0  0  0  0  0  0  0  0  0
   -0.7500    3.8971    0.0000 C   0  0  0  0  0  0  0  0  0  0  0  0
    0.7500    3.8971    0.0000 C   0  0  0  0  0  0  0  0  0  0  0  0
    1.5000    2.5981    0.0000 C   0  0  0  0  0  0  0  0  0  0  0  0
    0.7500    1.2990    0.0000 C   0  0  0  0  0  0  0  0  0  0  0  0
  1  2  1  0
  2  3  2  0
  2  4  1  0
  4  5  1  0
  5  6  2  3
  6  7  1  0
  7  8  2  0
  8  9  1  0
  9 10  2  0
 10 11  1  0
 11 12  2  0
 12 13  1  0
 13 14  1  0
 13 15  1  0
 13 16  1  0
 16 17  1  0
 16 18  1  0
 16 19  1  0
 19 20  1  0
 19 21  1  0
 19 22  1  0
 12 23  1  0
 23 24  2  0
 24 25  1  0
 25 26  2  0
 26  7  1  0
 26 11  1  0
M  END
$$$$

     RDKit          2D

 15 15  0  0  0  0  0  0  0  0999 V2000
    3.1820    2.1213    0.0000 F   0  0  0  0  0  0  0  0  0  0  0  0
    2.1213    1.0607    0.0000 C   0  0  0  0  0  0  0  0  0  0  0  0
    1.5760    1.7586    0.0000 F   0  0  0  0  0  0  0  0  0  0  0  0
    3.1820    0.0000    0.0000 F   0  0  0  0  0  0  0  0  0  0  0  0
    1.0607    0.0000    0.0000 C   0  0  0  0  0  0  0  0  0  0  0  0
    2.1213   -1.0607    0.0000 F   0  0  0  0  0  0  0  0  0  0  0  0
   -0.0000   -1.0607    0.0000 C   0  0  0  0  0  0  0  0  0  0  0  0
    1.0607   -2.1213    0.0000 F   0  0  0  0  0  0  0  0  0  0  0  0
   -1.0607   -2.1213    0.0000 F   0  0  0  0  0  0  0  0  0  0  0  0
   -1.0607    0.0000    0.0000 C   0  0  0  0  0  0  0  0  0  0  0  0
   -2.1213   -1.0607    0.0000 F   0  0  0  0  0  0  0  0  0  0  0  0
   -2.1213    1.0607    0.0000 F   0  0  0  0  0  0  0  0  0  0  0  0
    0.0000    1.0607    0.0000 C   0  0  0  0  0  0  0  0  0  0  0  0
   -1.0607    2.1213    0.0000 F   0  0  0  0  0  0  0  0  0  0  0  0
    0.5453    1.7586    0.0000 F   0  0  0  0  0  0  0  0  0  0  0  0
  1  2  1  0
  2  3  1  0
  2  4  1  0
  2  5  1  0
  5  6  1  0
  5  7  1  0
  7  8  1  0
  7  9  1  0
  7 10  1  0
 10 11  1  0
 10 12  1  0
 10 13  1  0
 13 14  1  0
 13 15  1  0
 13  5  1  0
M  END
$$$$

     RDKit          2D

 42 41  0  0  0  0  0  0  0  0999 V2000
   -1.5000   -0.0000    0.0000 F   0  0  0  0  0  0  0  0  0  0  0  0
    0.0000   -0.0000    0.0000 C   0  0  0  0  0  0  0  0  0  0  0  0
    0.0000    1.5000    0.0000 F   0  0  0  0  0  0  0  0  0  0  0  0
    0.0000   -1.5000    0.0000 F   0  0  0  0  0  0  0  0  0  0  0  0
    1.5000   -0.0000    0.0000 C   0  0  0  0  0  0  0  0  0  0  0  0
    1.5000    1.5000    0.0000 F   0  0  0  0  0  0  0  0  0  0  0  0
    1.5000   -1.5000    0.0000 F   0  0  0  0  0  0  0  0  0  0  0  0
    3.0000    0.0000    0.0000 C   0  0  0  0  0  0  0  0  0  0  0  0
    2.7857    0.8594    0.0000 F   0  0  0  0  0  0  0  0  0  0  0  0
    3.0000   -1.5000    0.0000 F   0  0  0  0  0  0  0  0  0  0  0  0
    4.5000    0.0000    0.0000 C   0  0  0  0  0  0  0  0  0  0  0  0
    5.9888   -0.1828    0.0000 F   0  0  0  0  0  0  0  0  0  0  0  0
    4.5000   -1.5000    0.0000 F   0  0  0  0  0  0  0  0  0  0  0  0
    4.5000    1.5000    0.0000 P   0  0  0  0  0  0  0  0  0  0  0  0
    5.3817    2.7135    0.0000 F   0  0  0  0  0  0  0  0  0  0  0  0
    3.7175    1.3479    0.0000 F   0  0  0  0  0  0  0  0  0  0  0  0
    5.9266    1.0365    0.0000 C   0  0  0  0  0  0  0  0  0  0  0  0
    5.6404   -0.4360    0.0000 F   0  0  0  0  0  0  0  0  0  0  0  0
    7.3532    0.5729    0.0000 F   0  0  0  0  0  0  0  0  0  0  0  0
    6.3901    2.4631    0.0000 C   0  0  0  0  0  0  0  0  0  0  0  0
    5.2245    3.4071    0.0000 F   0  0  0  0  0  0  0  0  0  0  0  0
    7.8167    1.9995    0.0000 F   0  0  0  0  0  0  0  0  0  0  0  0
    6.8536    3.8896    0.0000 C   0  0  0  0  0  0  0  0  0  0  0  0
    8.2131    3.2557    0.0000 F   0  0  0  0  0  0  0  0  0  0  0  0
    5.5816    4.6846    0.0000 F   0  0  0  0  0  0  0  0  0  0  0  0
    7.3172    5.3162    0.0000 C   0  0  0  0  0  0  0  0  0  0  0  0
    7.9511    6.6757    0.0000 F   0  0  0  0  0  0  0  0  0  0  0  0
    8.7437    4.8527    0.0000 F   0  0  0  0  0  0  0  0  0  0  0  0
    5.9577    5.9502    0.0000 F   0  0  0  0  0  0  0  0  0  0  0  0
    3.6183    2.7135    0.0000 C   0  0  0  0  0  0  0  0  0  0  0  0
    2.3064    1.9863    0.0000 F   0  0  0  0  0  0  0  0  0  0  0  0
    2.7366    3.9271    0.0000 F   0  0  0  0  0  0  0  0  0  0  0  0
    4.8318    3.5952    0.0000 C   0  0  0  0  0  0  0  0  0  0  0  0
    6.0899    2.7783    0.0000 F   0  0  0  0  0  0  0  0  0  0  0  0
    3.9502    4.8087    0.0000 F   0  0  0  0  0  0  0  0  0  0  0  0
    6.0454    4.4769    0.0000 C   0  0  0  0  0  0  0  0  0  0  0  0
    5.0223    5.5739    0.0000 F   0  0  0  0  0  0  0  0  0  0  0  0
    7.1945    3.5128    0.0000 F   0  0  0  0  0  0  0  0  0  0  0  0
    7.2589    5.3586    0.0000 C   0  0  0  0  0  0  0  0  0  0  0  0
    8.3559    6.3816    0.0000 F   0  0  0  0  0  0  0  0  0  0  0  0
    6.3772    6.5721    0.0000 F   0  0  0  0  0  0  0  0  0  0  0  0
    8.2819    4.2616    0.0000 F   0  0  0  0  0  0  0  0  0  0  0  0
  1  2  1  0
  2  3  1  0
  2  4  1  0
  2  5  1  0
  5  6  1  0
  5  7  1  0
  5  8  1  0
  8  9  1  0
  8 10  1  0
  8 11  1  0
 11 12  1  0
 11 13  1  0
 11 14  1  0
 14 15  1  0
 14 16  1  0
 14 17  1  0
 17 18  1  0
 17 19  1  0
 17 20  1  0
 20 21  1  0
 20 22  1  0
 20 23  1  0
 23 24  1  0
 23 25  1  0
 23 26  1  0
 26 27  1  0
 26 28  1  0
 26 29  1  0
 14 30  1  0
 30 31  1  0
 30 32  1  0
 30 33  1  0
 33 34  1  0
 33 35  1  0
 33 36  1  0
 36 37  1  0
 36 38  1  0
 36 39  1  0
 39 40  1  0
 39 41  1  0
 39 42  1  0
M  END
$$$$

     RDKit          2D

  9  9  0  0  0  0  0  0  0  0999 V2000
    2.5607    0.0000    0.0000 F   0  0  0  0  0  0  0  0  0  0  0  0
    1.0607    0.0000    0.0000 C   0  0  0  0  0  0  0  0  0  0  0  0
   -0.0000   -1.0607    0.0000 C   0  0  0  0  0  0  0  0  0  0  0  0
   -1.0607    0.0000    0.0000 C   0  0  0  0  0  0  0  0  0  0  0  0
   -2.1213   -1.0607    0.0000 F   0  0  0  0  0  0  0  0  0  0  0  0
   -2.1213    1.0607    0.0000 F   0  0  0  0  0  0  0  0  0  0  0  0
    0.0000    1.0607    0.0000 C   0  0  0  0  0  0  0  0  0  0  0  0
   -1.0607    2.1213    0.0000 F   0  0  0  0  0  0  0  0  0  0  0  0
    1.0607    2.1213    0.0000 F   0  0  0  0  0  0  0  0  0  0  0  0
  1  2  1  0
  2  3  1  0
  3  4  1  0
  4  5  1  0
  4  6  1  0
  4  7  1  0
  7  8  1  0
  7  9  1  0
  7  2  1  0
M  END
$$$$

     RDKit          2D

 16 16  0  0  0  0  0  0  0  0999 V2000
    2.7760    0.0000    0.0000 O   0  0  0  0  0  0  0  0  0  0  0  0
    1.2760    0.0000    0.0000 C   0  0  0  0  0  0  0  0  0  0  0  0
    0.3943    1.2135    0.0000 C   0  0  0  0  0  0  0  0  0  0  0  0
   -1.0323    0.7500    0.0000 C   0  0  0  0  0  0  0  0  0  0  0  0
   -1.0323   -0.7500    0.0000 C   0  0  0  0  0  0  0  0  0  0  0  0
   -2.2458   -1.6317    0.0000 C   0  0  0  0  0  0  0  0  0  0  0  0
   -3.1275   -0.4182    0.0000 F   0  0  0  0  0  0  0  0  0  0  0  0
   -1.3641   -2.8452    0.0000 F   0  0  0  0  0  0  0  0  0  0  0  0
   -3.4593   -2.5134    0.0000 C   0  0  0  0  0  0  0  0  0  0  0  0
   -2.5777   -3.7269    0.0000 F   0  0  0  0  0  0  0  0  0  0  0  0
   -4.3410   -1.2998    0.0000 F   0  0  0  0  0  0  0  0  0  0  0  0
   -4.6729   -3.3950    0.0000 C   0  0  0  0  0  0  0  0  0  0  0  0
   -5.8864   -4.2767    0.0000 F   0  0  0  0  0  0  0  0  0  0  0  0
   -5.5545   -2.1815    0.0000 F   0  0  0  0  0  0  0  0  0  0  0  0
   -3.7912   -4.6086    0.0000 F   0  0  0  0  0  0  0  0  0  0  0  0
    0.3943   -1.2135    0.0000 O   0  0  0  0  0  0  0  0  0  0  0  0
  1  2  2  0
  2  3  1  0
  3  4  2  0
  4  5  1  0
  5  6  1  0
  6  7  1  0
  6  8  1  0
  6  9  1  0
  9 10  1  0
  9 11  1  0
  9 12  1  0
 12 13  1  0
 12 14  1  0
 12 15  1  0
  5 16  1  0
 16  2  1  0
M  END
$$$$

     RDKit          2D

 12 11  0  0  0  0  0  0  0  0999 V2000
    5.1962    1.5000    0.0000 F   0  0  0  0  0  0  0  0  0  0  0  0
    3.8971    0.7500    0.0000 C   0  0  0  0  0  0  0  0  0  0  0  0
    4.6471   -0.5490    0.0000 F   0  0  0  0  0  0  0  0  0  0  0  0
    3.1471    2.0490    0.0000 F   0  0  0  0  0  0  0  0  0  0  0  0
    2.5981   -0.0000    0.0000 C   0  0  0  0  0  0  0  0  0  0  0  0
    1.2990    0.7500    0.0000 O   0  0  0  0  0  0  0  0  0  0  0  0
    0.0000    0.0000    0.0000 C   0  0  0  0  0  0  0  0  0  0  0  0
   -1.2990    0.7500    0.0000 Cl  0  0  0  0  0  0  0  0  0  0  0  0
    2.5981   -1.5000    0.0000 C   0  0  0  0  0  0  0  0  0  0  0  0
    2.5981   -3.0000    0.0000 F   0  0  0  0  0  0  0  0  0  0  0  0
    4.0981   -1.5000    0.0000 F   0  0  0  0  0  0  0  0  0  0  0  0
    1.0981   -1.5000    0.0000 F   0  0  0  0  0  0  0  0  0  0  0  0
  1  2  1  0
  2  3  1  0
  2  4  1  0
  2  5  1  0
  5  6  1  0
  6  7  1  0
  7  8  1  0
  5  9  1  0
  9 10  1  0
  9 11  1  0
  9 12  1  0
M  END
$$$$

     RDKit          2D

 27 26  0  0  0  0  0  0  0  0999 V2000
    0.0000    0.0000    0.0000 C   0  0  0  0  0  0  0  0  0  0  0  0
    1.2990    0.7500    0.0000 C   0  0  0  0  0  0  0  0  0  0  0  0
    2.5981   -0.0000    0.0000 C   0  0  0  0  0  0  0  0  0  0  0  0
    3.8971    0.7500    0.0000 C   0  0  0  0  0  0  0  0  0  0  0  0
    5.1962   -0.0000    0.0000 C   0  0  0  0  0  0  0  0  0  0  0  0
    6.4952    0.7500    0.0000 C   0  0  0  0  0  0  0  0  0  0  0  0
    7.7942   -0.0000    0.0000 C   0  0  0  0  0  0  0  0  0  0  0  0
    9.0933    0.7500    0.0000 C   0  0  0  0  0  0  0  0  0  0  0  0
   10.3923   -0.0000    0.0000 C   0  0  0  0  0  0  0  0  0  0  0  0
   11.1423    1.2990    0.0000 F   0  0  0  0  0  0  0  0  0  0  0  0
    9.6423   -1.2990    0.0000 F   0  0  0  0  0  0  0  0  0  0  0  0
   11.6913   -0.7500    0.0000 C   0  0  0  0  0  0  0  0  0  0  0  0
   10.9413   -2.0490    0.0000 F   0  0  0  0  0  0  0  0  0  0  0  0
   12.4413    0.5490    0.0000 F   0  0  0  0  0  0  0  0  0  0  0  0
   12.9904   -1.5000    0.0000 C   0  0  0  0  0  0  0  0  0  0  0  0
   13.7404   -0.2010    0.0000 F   0  0  0  0  0  0  0  0  0  0  0  0
   12.2404   -2.7990    0.0000 F   0  0  0  0  0  0  0  0  0  0  0  0
   14.2894   -2.2500    0.0000 C   0  0  0  0  0  0  0  0  0  0  0  0
   13.5394   -3.5490    0.0000 F   0  0  0  0  0  0  0  0  0  0  0  0
   15.0394   -0.9510    0.0000 F   0  0  0  0  0  0  0  0  0  0  0  0
   15.5885   -3.0000    0.0000 C   0  0  0  0  0  0  0  0  0  0  0  0
   16.3385   -1.7010    0.0000 F   0  0  0  0  0  0  0  0  0  0  0  0
   14.8385   -4.2990    0.0000 F   0  0  0  0  0  0  0  0  0  0  0  0
   16.8875   -3.7500    0.0000 C   0  0  0  0  0  0  0  0  0  0  0  0
   18.1865   -4.5000    0.0000 F   0  0  0  0  0  0  0  0  0  0  0  0
   16.1375   -5.0490    0.0000 F   0  0  0  0  0  0  0  0  0  0  0  0
   17.6375   -2.4510    0.0000 F   0  0  0  0  0  0  0  0  0  0  0  0
  1  2  1  0
  2  3  1  0
  3  4  1  0
  4  5  1  0
  5  6  1  0
  6  7  1  0
  7  8  1  0
  8  9  1  0
  9 10  1  0
  9 11  1  0
  9 12  1  0
 12 13  1  0
 12 14  1  0
 12 15  1  0
 15 16  1  0
 15 17  1  0
 15 18  1  0
 18 19  1  0
 18 20  1  0
 18 21  1  0
 21 22  1  0
 21 23  1  0
 21 24  1  0
 24 25  1  0
 24 26  1  0
 24 27  1  0
M  END
$$$$

     RDKit          2D

 26 25  0  0  0  0  0  0  0  0999 V2000
    1.2990    2.2500    0.0000 O   0  0  0  0  0  0  0  0  0  0  0  0
    1.2990    0.7500    0.0000 C   0  0  0  0  0  0  0  0  0  0  0  0
    0.0000    0.0000    0.0000 C   0  0  0  0  0  0  0  0  0  0  0  0
   -1.2990    0.7500    0.0000 Cl  0  0  0  0  0  0  0  0  0  0  0  0
    2.5981   -0.0000    0.0000 C   0  0  0  0  0  0  0  0  0  0  0  0
    3.8971    0.7500    0.0000 N   0  0  0  0  0  0  0  0  0  0  0  0
    5.1962   -0.0000    0.0000 C   0  0  0  0  0  0  0  0  0  0  0  0
    6.4952    0.7500    0.0000 C   0  0  0  0  0  0  0  0  0  0  0  0
    7.7942   -0.0000    0.0000 C   0  0  0  0  0  0  0  0  0  0  0  0
    8.5442    1.2990    0.0000 F   0  0  0  0  0  0  0  0  0  0  0  0
    7.0442   -1.2990    0.0000 F   0  0  0  0  0  0  0  0  0  0  0  0
    9.0933   -0.7500    0.0000 C   0  0  0  0  0  0  0  0  0  0  0  0
    8.3433   -2.0490    0.0000 F   0  0  0  0  0  0  0  0  0  0  0  0
    9.8433    0.5490    0.0000 F   0  0  0  0  0  0  0  0  0  0  0  0
   10.3923   -1.5000    0.0000 C   0  0  0  0  0  0  0  0  0  0  0  0
   11.1423   -0.2010    0.0000 F   0  0  0  0  0  0  0  0  0  0  0  0
    9.6423   -2.7990    0.0000 F   0  0  0  0  0  0  0  0  0  0  0  0
   11.6913   -2.2500    0.0000 C   0  0  0  0  0  0  0  0  0  0  0  0
   12.9904   -3.0000    0.0000 F   0  0  0  0  0  0  0  0  0  0  0  0
   10.9413   -3.5490    0.0000 F   0  0  0  0  0  0  0  0  0  0  0  0
   12.4413   -0.9510    0.0000 F   0  0  0  0  0  0  0  0  0  0  0  0
    3.8971    2.2500    0.0000 C   0  0  0  0  0  0  0  0  0  0  0  0
    5.1962    3.0000    0.0000 C   0  0  0  0  0  0  0  0  0  0  0  0
    6.4952    2.2500    0.0000 O   0  0  0  0  0  0  0  0  0  0  0  0
    5.1962    4.5000    0.0000 C   0  0  0  0  0  0  0  0  0  0  0  0
    6.4952    5.2500    0.0000 Cl  0  0  0  0  0  0  0  0  0  0  0  0
  1  2  1  0
  2  3  1  0
  3  4  1  0
  2  5  1  0
  5  6  1  0
  6  7  1  0
  7  8  1  0
  8  9  1  0
  9 10  1  0
  9 11  1  0
  9 12  1  0
 12 13  1  0
 12 14  1  0
 12 15  1  0
 15 16  1  0
 15 17  1  0
 15 18  1  0
 18 19  1  0
 18 20  1  0
 18 21  1  0
  6 22  1  0
 22 23  1  0
 23 24  1  0
 23 25  1  0
 25 26  1  0
M  END
$$$$

     RDKit          2D

 73 73  0  0  0  0  0  0  0  0999 V2000
    3.7500    1.2990    0.0000 O   0  0  0  0  0  0  0  0  0  0  0  0
    3.0000    0.0000    0.0000 C   0  0  0  0  0  0  0  0  0  0  0  0
    3.7500   -1.2990    0.0000 O   0  0  0  0  0  0  0  0  0  0  0  0
    1.5000    0.0000    0.0000 C   0  0  0  0  0  0  0  0  0  0  0  0
    0.7500   -1.2990    0.0000 C   0  0  0  0  0  0  0  0  0  0  0  0
   -0.7500   -1.2990    0.0000 C   0  0  0  0  0  0  0  0  0  0  0  0
   -1.5000    0.0000    0.0000 C   0  0  0  0  0  0  0  0  0  0  0  0
   -3.0000    0.0000    0.0000 Si  0  0  0  0  0  4  0  0  0  0  0  0
   -3.0000    1.5000    0.0000 C   0  0  0  0  0  0  0  0  0  0  0  0
   -4.2990    2.2500    0.0000 C   0  0  0  0  0  0  0  0  0  0  0  0
   -4.2990    3.7500    0.0000 C   0  0  0  0  0  0  0  0  0  0  0  0
   -5.7990    3.7500    0.0000 F   0  0  0  0  0  0  0  0  0  0  0  0
   -2.7990    3.7500    0.0000 F   0  0  0  0  0  0  0  0  0  0  0  0
   -4.2990    5.2500    0.0000 C   0  0  0  0  0  0  0  0  0  0  0  0
   -2.7990    5.2500    0.0000 F   0  0  0  0  0  0  0  0  0  0  0  0
   -5.7990    5.2500    0.0000 F   0  0  0  0  0  0  0  0  0  0  0  0
   -4.2990    6.7500    0.0000 C   0  0  0  0  0  0  0  0  0  0  0  0
   -5.7990    6.7500    0.0000 F   0  0  0  0  0  0  0  0  0  0  0  0
   -2.7990    6.7500    0.0000 F   0  0  0  0  0  0  0  0  0  0  0  0
   -4.2990    8.2500    0.0000 C   0  0  0  0  0  0  0  0  0  0  0  0
   -2.7990    8.2500    0.0000 F   0  0  0  0  0  0  0  0  0  0  0  0
   -5.7990    8.2500    0.0000 F   0  0  0  0  0  0  0  0  0  0  0  0
   -4.2990    9.7500    0.0000 C   0  0  0  0  0  0  0  0  0  0  0  0
   -5.7990    9.7500    0.0000 F   0  0  0  0  0  0  0  0  0  0  0  0
   -2.7990    9.7500    0.0000 F   0  0  0  0  0  0  0  0  0  0  0  0
   -4.2990   11.2500    0.0000 C   0  0  0  0  0  0  0  0  0  0  0  0
   -4.2990   12.7500    0.0000 F   0  0  0  0  0  0  0  0  0  0  0  0
   -2.7990   11.2500    0.0000 F   0  0  0  0  0  0  0  0  0  0  0  0
   -5.7990   11.2500    0.0000 F   0  0  0  0  0  0  0  0  0  0  0  0
   -3.0000   -1.5000    0.0000 C   0  0  0  0  0  0  0  0  0  0  0  0
   -4.2990   -2.2500    0.0000 C   0  0  0  0  0  0  0  0  0  0  0  0
   -4.2990   -3.7500    0.0000 C   0  0  0  0  0  0  0  0  0  0  0  0
   -5.7990   -3.7500    0.0000 F   0  0  0  0  0  0  0  0  0  0  0  0
   -2.7990   -3.7500    0.0000 F   0  0  0  0  0  0  0  0  0  0  0  0
   -4.2990   -5.2500    0.0000 C   0  0  0  0  0  0  0  0  0  0  0  0
   -2.7990   -5.2500    0.0000 F   0  0  0  0  0  0  0  0  0  0  0  0
   -5.7990   -5.2500    0.0000 F   0  0  0  0  0  0  0  0  0  0  0  0
   -4.2990   -6.7500    0.0000 C   0  0  0  0  0  0  0  0  0  0  0  0
   -5.7990   -6.7500    0.0000 F   0  0  0  0  0  0  0  0  0  0  0  0
   -2.7990   -6.7500    0.0000 F   0  0  0  0  0  0  0  0  0  0  0  0
   -4.2990   -8.2500    0.0000 C   0  0  0  0  0  0  0  0  0  0  0  0
   -2.7990   -8.2500    0.0000 F   0  0  0  0  0  0  0  0  0  0  0  0
   -5.7990   -8.2500    0.0000 F   0  0  0  0  0  0  0  0  0  0  0  0
   -4.2990   -9.7500    0.0000 C   0  0  0  0  0  0  0  0  0  0  0  0
   -5.7990   -9.7500    0.0000 F   0  0  0  0  0  0  0  0  0  0  0  0
   -2.7990   -9.7500    0.0000 F   0  0  0  0  0  0  0  0  0  0  0  0
   -4.2990  -11.2500    0.0000 C   0  0  0  0  0  0  0  0  0  0  0  0
   -4.2990  -12.7500    0.0000 F   0  0  0  0  0  0  0  0  0  0  0  0
   -2.7990  -11.2500    0.0000 F   0  0  0  0  0  0  0  0  0  0  0  0
   -5.7990  -11.2500    0.0000 F   0  0  0  0  0  0  0  0  0  0  0  0
   -4.5000    0.0000    0.0000 C   0  0  0  0  0  0  0  0  0  0  0  0
   -5.2500   -1.2990    0.0000 C   0  0  0  0  0  0  0  0  0  0  0  0
   -6.7500   -1.2990    0.0000 C   0  0  0  0  0  0  0  0  0  0  0  0
   -6.7500   -2.7990    0.0000 F   0  0  0  0  0  0  0  0  0  0  0  0
   -6.7500    0.2010    0.0000 F   0  0  0  0  0  0  0  0  0  0  0  0
   -8.2500   -1.2990    0.0000 C   0  0  0  0  0  0  0  0  0  0  0  0
   -8.2500    0.2010    0.0000 F   0  0  0  0  0  0  0  0  0  0  0  0
   -8.2500   -2.7990    0.0000 F   0  0  0  0  0  0  0  0  0  0  0  0
   -9.7500   -1.2990    0.0000 C   0  0  0  0  0  0  0  0  0  0  0  0
   -9.7500   -2.7990    0.0000 F   0  0  0  0  0  0  0  0  0  0  0  0
   -9.7500    0.2010    0.0000 F   0  0  0  0  0  0  0  0  0  0  0  0
  -11.2500   -1.2990    0.0000 C   0  0  0  0  0  0  0  0  0  0  0  0
  -11.2500    0.2010    0.0000 F   0  0  0  0  0  0  0  0  0  0  0  0
  -11.2500   -2.7990    0.0000 F   0  0  0  0  0  0  0  0  0  0  0  0
  -12.7500   -1.2990    0.0000 C   0  0  0  0  0  0  0  0  0  0  0  0
  -12.7500   -2.7990    0.0000 F   0  0  0  0  0  0  0  0  0  0  0  0
  -12.7500    0.2010    0.0000 F   0  0  0  0  0  0  0  0  0  0  0  0
  -14.2500   -1.2990    0.0000 C   0  0  0  0  0  0  0  0  0  0  0  0
  -15.7500   -1.2990    0.0000 F   0  0  0  0  0  0  0  0  0  0  0  0
  -14.2500    0.2010    0.0000 F   0  0  0  0  0  0  0  0  0  0  0  0
  -14.2500   -2.7990    0.0000 F   0  0  0  0  0  0  0  0  0  0  0  0
   -0.7500    1.2990    0.0000 C   0  0  0  0  0  0  0  0  0  0  0  0
    0.7500    1.2990    0.0000 C   0  0  0  0  0  0  0  0  0  0  0  0
  1  2  2  0
  2  3  1  0
  2  4  1  0
  4  5  2  0
  5  6  1  0
  6  7  2  0
  7  8  1  0
  8  9  1  0
  9 10  1  0
 10 11  1  0
 11 12  1  0
 11 13  1  0
 11 14  1  0
 14 15  1  0
 14 16  1  0
 14 17  1  0
 17 18  1  0
 17 19  1  0
 17 20  1  0
 20 21  1  0
 20 22  1  0
 20 23  1  0
 23 24  1  0
 23 25  1  0
 23 26  1  0
 26 27  1  0
 26 28  1  0
 26 29  1  0
  8 30  1  0
 30 31  1  0
 31 32  1  0
 32 33  1  0
 32 34  1  0
 32 35  1  0
 35 36  1  0
 35 37  1  0
 35 38  1  0
 38 39  1  0
 38 40  1  0
 38 41  1  0
 41 42  1  0
 41 43  1  0
 41 44  1  0
 44 45  1  0
 44 46  1  0
 44 47  1  0
 47 48  1  0
 47 49  1  0
 47 50  1  0
  8 51  1  0
 51 52  1  0
 52 53  1  0
 53 54  1  0
 53 55  1  0
 53 56  1  0
 56 57  1  0
 56 58  1  0
 56 59  1  0
 59 60  1  0
 59 61  1  0
 59 62  1  0
 62 63  1  0
 62 64  1  0
 62 65  1  0
 65 66  1  0
 65 67  1  0
 65 68  1  0
 68 69  1  0
 68 70  1  0
 68 71  1  0
  7 72  1  0
 72 73  2  0
 73  4  1  0
M  END
$$$$

     RDKit          2D

 29 28  0  0  0  0  0  0  0  0999 V2000
   -1.2990    0.7500    0.0000 N   0  0  0  0  0  0  0  0  0  0  0  0
    0.0000    0.0000    0.0000 C   0  0  0  0  0  0  0  0  0  0  0  0
    1.2990    0.7500    0.0000 C   0  0  0  0  0  0  0  0  0  0  0  0
    2.5981   -0.0000    0.0000 C   0  0  0  0  0  0  0  0  0  0  0  0
    3.8971    0.7500    0.0000 C   0  0  0  0  0  0  0  0  0  0  0  0
    4.6471   -0.5490    0.0000 F   0  0  0  0  0  0  0  0  0  0  0  0
    3.1471    2.0490    0.0000 F   0  0  0  0  0  0  0  0  0  0  0  0
    5.1962    1.5000    0.0000 C   0  0  0  0  0  0  0  0  0  0  0  0
    4.4462    2.7990    0.0000 F   0  0  0  0  0  0  0  0  0  0  0  0
    5.9462    0.2010    0.0000 F   0  0  0  0  0  0  0  0  0  0  0  0
    6.4952    2.2500    0.0000 C   0  0  0  0  0  0  0  0  0  0  0  0
    7.2452    0.9510    0.0000 F   0  0  0  0  0  0  0  0  0  0  0  0
    5.7452    3.5490    0.0000 F   0  0  0  0  0  0  0  0  0  0  0  0
    7.7942    3.0000    0.0000 C   0  0  0  0  0  0  0  0  0  0  0  0
    7.0442    4.2990    0.0000 F   0  0  0  0  0  0  0  0  0  0  0  0
    8.5442    1.7010    0.0000 F   0  0  0  0  0  0  0  0  0  0  0  0
    9.0933    3.7500    0.0000 C   0  0  0  0  0  0  0  0  0  0  0  0
    9.8433    2.4510    0.0000 F   0  0  0  0  0  0  0  0  0  0  0  0
    8.3433    5.0490    0.0000 F   0  0  0  0  0  0  0  0  0  0  0  0
   10.3923    4.5000    0.0000 C   0  0  0  0  0  0  0  0  0  0  0  0
    9.6423    5.7990    0.0000 F   0  0  0  0  0  0  0  0  0  0  0  0
   11.1423    3.2010    0.0000 F   0  0  0  0  0  0  0  0  0  0  0  0
   11.6913    5.2500    0.0000 C   0  0  0  0  0  0  0  0  0  0  0  0
   12.4413    3.9510    0.0000 F   0  0  0  0  0  0  0  0  0  0  0  0
   10.9413    6.5490    0.0000 F   0  0  0  0  0  0  0  0  0  0  0  0
   12.9904    6.0000    0.0000 C   0  0  0  0  0  0  0  0  0  0  0  0
   14.2894    6.7500    0.0000 F   0  0  0  0  0  0  0  0  0  0  0  0
   12.2404    7.2990    0.0000 F   0  0  0  0  0  0  0  0  0  0  0  0
   13.7404    4.7010    0.0000 F   0  0  0  0  0  0  0  0  0  0  0  0
  1  2  1  0
  2  3  1  0
  3  4  1  0
  4  5  1  0
  5  6  1  0
  5  7  1  0
  5  8  1  0
  8  9  1  0
  8 10  1  0
  8 11  1  0
 11 12  1  0
 11 13  1  0
 11 14  1  0
 14 15  1  0
 14 16  1  0
 14 17  1  0
 17 18  1  0
 17 19  1  0
 17 20  1  0
 20 21  1  0
 20 22  1  0
 20 23  1  0
 23 24  1  0
 23 25  1  0
 23 26  1  0
 26 27  1  0
 26 28  1  0
 26 29  1  0
M  END
$$$$

     RDKit          2D

 67 66  0  0  0  0  0  0  0  0999 V2000
   -2.0490    4.6471    0.0000 N   0  0  0  0  0  0  0  0  0  0  0  0
   -1.2990    3.3481    0.0000 N   0  0  0  0  0  0  0  0  0  0  0  0
   -0.5490    2.0490    0.0000 N   0  0  0  0  0  0  0  0  0  0  0  0
   -1.2990    0.7500    0.0000 Sn  0  0  0  0  0  4  0  0  0  0  0  0
    0.0000    0.0000    0.0000 C   0  0  0  0  0  0  0  0  0  0  0  0
    1.2990    0.7500    0.0000 C   0  0  0  0  0  0  0  0  0  0  0  0
    2.5981   -0.0000    0.0000 C   0  0  0  0  0  0  0  0  0  0  0  0
    3.3481    1.2990    0.0000 F   0  0  0  0  0  0  0  0  0  0  0  0
    1.8481   -1.2990    0.0000 F   0  0  0  0  0  0  0  0  0  0  0  0
    3.8971   -0.7500    0.0000 C   0  0  0  0  0  0  0  0  0  0  0  0
    3.1471   -2.0490    0.0000 F   0  0  0  0  0  0  0  0  0  0  0  0
    4.6471    0.5490    0.0000 F   0  0  0  0  0  0  0  0  0  0  0  0
    5.1962   -1.5000    0.0000 C   0  0  0  0  0  0  0  0  0  0  0  0
    5.9462   -0.2010    0.0000 F   0  0  0  0  0  0  0  0  0  0  0  0
    4.4462   -2.7990    0.0000 F   0  0  0  0  0  0  0  0  0  0  0  0
    6.4952   -2.2500    0.0000 C   0  0  0  0  0  0  0  0  0  0  0  0
    5.7452   -3.5490    0.0000 F   0  0  0  0  0  0  0  0  0  0  0  0
    7.2452   -0.9510    0.0000 F   0  0  0  0  0  0  0  0  0  0  0  0
    7.7942   -3.0000    0.0000 C   0  0  0  0  0  0  0  0  0  0  0  0
    8.5442   -1.7010    0.0000 F   0  0  0  0  0  0  0  0  0  0  0  0
    7.0442   -4.2990    0.0000 F   0  0  0  0  0  0  0  0  0  0  0  0
    9.0933   -3.7500    0.0000 C   0  0  0  0  0  0  0  0  0  0  0  0
   10.3923   -4.5000    0.0000 F   0  0  0  0  0  0  0  0  0  0  0  0
    8.3433   -5.0490    0.0000 F   0  0  0  0  0  0  0  0  0  0  0  0
    9.8433   -2.4510    0.0000 F   0  0  0  0  0  0  0  0  0  0  0  0
   -2.5981    1.5000    0.0000 C   0  0  0  0  0  0  0  0  0  0  0  0
   -2.5981    3.0000    0.0000 C   0  0  0  0  0  0  0  0  0  0  0  0
   -3.8971    3.7500    0.0000 C   0  0  0  0  0  0  0  0  0  0  0  0
   -3.1471    5.0490    0.0000 F   0  0  0  0  0  0  0  0  0  0  0  0
   -4.6471    2.4510    0.0000 F   0  0  0  0  0  0  0  0  0  0  0  0
   -5.1962    4.5000    0.0000 C   0  0  0  0  0  0  0  0  0  0  0  0
   -5.9462    3.2010    0.0000 F   0  0  0  0  0  0  0  0  0  0  0  0
   -4.4462    5.7990    0.0000 F   0  0  0  0  0  0  0  0  0  0  0  0
   -6.4952    5.2500    0.0000 C   0  0  0  0  0  0  0  0  0  0  0  0
   -5.7452    6.5490    0.0000 F   0  0  0  0  0  0  0  0  0  0  0  0
   -7.2452    3.9510    0.0000 F   0  0  0  0  0  0  0  0  0  0  0  0
   -7.7942    6.0000    0.0000 C   0  0  0  0  0  0  0  0  0  0  0  0
   -8.5442    4.7010    0.0000 F   0  0  0  0  0  0  0  0  0  0  0  0
   -7.0442    7.2990    0.0000 F   0  0  0  0  0  0  0  0  0  0  0  0
   -9.0933    6.7500    0.0000 C   0  0  0  0  0  0  0  0  0  0  0  0
   -8.3433    8.0490    0.0000 F   0  0  0  0  0  0  0  0  0  0  0  0
   -9.8433    5.4510    0.0000 F   0  0  0  0  0  0  0  0  0  0  0  0
  -10.3923    7.5000    0.0000 C   0  0  0  0  0  0  0  0  0  0  0  0
  -11.6913    8.2500    0.0000 F   0  0  0  0  0  0  0  0  0  0  0  0
  -11.1423    6.2010    0.0000 F   0  0  0  0  0  0  0  0  0  0  0  0
   -9.6423    8.7990    0.0000 F   0  0  0  0  0  0  0  0  0  0  0  0
   -2.0490   -0.5490    0.0000 C   0  0  0  0  0  0  0  0  0  0  0  0
   -3.5490   -0.5490    0.0000 C   0  0  0  0  0  0  0  0  0  0  0  0
   -4.2990   -1.8481    0.0000 C   0  0  0  0  0  0  0  0  0  0  0  0
   -5.5981   -1.0981    0.0000 F   0  0  0  0  0  0  0  0  0  0  0  0
   -3.0000   -2.5981    0.0000 F   0  0  0  0  0  0  0  0  0  0  0  0
   -5.0490   -3.1471    0.0000 C   0  0  0  0  0  0  0  0  0  0  0  0
   -3.7500   -3.8971    0.0000 F   0  0  0  0  0  0  0  0  0  0  0  0
   -6.3481   -2.3971    0.0000 F   0  0  0  0  0  0  0  0  0  0  0  0
   -5.7990   -4.4462    0.0000 C   0  0  0  0  0  0  0  0  0  0  0  0
   -7.0981   -3.6962    0.0000 F   0  0  0  0  0  0  0  0  0  0  0  0
   -4.5000   -5.1962    0.0000 F   0  0  0  0  0  0  0  0  0  0  0  0
   -6.5490   -5.7452    0.0000 C   0  0  0  0  0  0  0  0  0  0  0  0
   -5.2500   -6.4952    0.0000 F   0  0  0  0  0  0  0  0  0  0  0  0
   -7.8481   -4.9952    0.0000 F   0  0  0  0  0  0  0  0  0  0  0  0
   -7.2990   -7.0442    0.0000 C   0  0  0  0  0  0  0  0  0  0  0  0
   -8.5981   -6.2942    0.0000 F   0  0  0  0  0  0  0  0  0  0  0  0
   -6.0000   -7.7942    0.0000 F   0  0  0  0  0  0  0  0  0  0  0  0
   -8.0490   -8.3433    0.0000 C   0  0  0  0  0  0  0  0  0  0  0  0
   -8.7990   -9.6423    0.0000 F   0  0  0  0  0  0  0  0  0  0  0  0
   -6.7500   -9.0933    0.0000 F   0  0  0  0  0  0  0  0  0  0  0  0
   -9.3481   -7.5933    0.0000 F   0  0  0  0  0  0  0  0  0  0  0  0
  1  2  2  0
  2  3  2  0
  3  4  1  0
  4  5  1  0
  5  6  1  0
  6  7  1  0
  7  8  1  0
  7  9  1  0
  7 10  1  0
 10 11  1  0
 10 12  1  0
 10 13  1  0
 13 14  1  0
 13 15  1  0
 13 16  1  0
 16 17  1  0
 16 18  1  0
 16 19  1  0
 19 20  1  0
 19 21  1  0
 19 22  1  0
 22 23  1  0
 22 24  1  0
 22 25  1  0
  4 26  1  0
 26 27  1  0
 27 28  1  0
 28 29  1  0
 28 30  1  0
 28 31  1  0
 31 32  1  0
 31 33  1  0
 31 34  1  0
 34 35  1  0
 34 36  1  0
 34 37  1  0
 37 38  1  0
 37 39  1  0
 37 40  1  0
 40 41  1  0
 40 42  1  0
 40 43  1  0
 43 44  1  0
 43 45  1  0
 43 46  1  0
  4 47  1  0
 47 48  1  0
 48 49  1  0
 49 50  1  0
 49 51  1  0
 49 52  1  0
 52 53  1  0
 52 54  1  0
 52 55  1  0
 55 56  1  0
 55 57  1  0
 55 58  1  0
 58 59  1  0
 58 60  1  0
 58 61  1  0
 61 62  1  0
 61 63  1  0
 61 64  1  0
 64 65  1  0
 64 66  1  0
 64 67  1  0
M  CHG  2   1  -1   2   1
M  END
$$$$

     RDKit          2D

 30 29  0  0  0  0  0  0  0  0999 V2000
   -1.2990    0.7500    0.0000 O   0  0  0  0  0  0  0  0  0  0  0  0
    0.0000    0.0000    0.0000 C   0  0  0  0  0  0  0  0  0  0  0  0
   -0.0000   -1.5000    0.0000 F   0  0  0  0  0  0  0  0  0  0  0  0
    1.2990    0.7500    0.0000 C   0  0  0  0  0  0  0  0  0  0  0  0
    0.5490    2.0490    0.0000 F   0  0  0  0  0  0  0  0  0  0  0  0
    2.0490   -0.5490    0.0000 O   0  0  0  0  0  0  0  0  0  0  0  0
    3.5490   -0.5490    0.0000 C   0  0  0  0  0  0  0  0  0  0  0  0
    3.7319    0.9398    0.0000 F   0  0  0  0  0  0  0  0  0  0  0  0
    3.5490   -2.0490    0.0000 F   0  0  0  0  0  0  0  0  0  0  0  0
    5.0490   -0.5490    0.0000 C   0  0  0  0  0  0  0  0  0  0  0  0
    5.0490    0.9510    0.0000 F   0  0  0  0  0  0  0  0  0  0  0  0
    5.0490   -2.0490    0.0000 O   0  0  0  0  0  0  0  0  0  0  0  0
    6.3481   -2.7990    0.0000 C   0  0  0  0  0  0  0  0  0  0  0  0
    6.8278   -2.1624    0.0000 F   0  0  0  0  0  0  0  0  0  0  0  0
    5.5981   -4.0981    0.0000 F   0  0  0  0  0  0  0  0  0  0  0  0
    7.6471   -3.5490    0.0000 C   0  0  0  0  0  0  0  0  0  0  0  0
    6.8971   -4.8481    0.0000 F   0  0  0  0  0  0  0  0  0  0  0  0
    8.3971   -2.2500    0.0000 F   0  0  0  0  0  0  0  0  0  0  0  0
    8.9462   -4.2990    0.0000 C   0  0  0  0  0  0  0  0  0  0  0  0
   10.2452   -5.0490    0.0000 F   0  0  0  0  0  0  0  0  0  0  0  0
    9.6962   -3.0000    0.0000 F   0  0  0  0  0  0  0  0  0  0  0  0
    8.1962   -5.5981    0.0000 F   0  0  0  0  0  0  0  0  0  0  0  0
    6.5490   -0.5490    0.0000 C   0  0  0  0  0  0  0  0  0  0  0  0
    8.0490   -0.5490    0.0000 F   0  0  0  0  0  0  0  0  0  0  0  0
    6.5490    0.9510    0.0000 F   0  0  0  0  0  0  0  0  0  0  0  0
    6.8348   -1.2932    0.0000 F   0  0  0  0  0  0  0  0  0  0  0  0
    2.5981    1.5000    0.0000 C   0  0  0  0  0  0  0  0  0  0  0  0
    3.8971    2.2500    0.0000 F   0  0  0  0  0  0  0  0  0  0  0  0
    1.8481    2.7990    0.0000 F   0  0  0  0  0  0  0  0  0  0  0  0
    3.7639    0.5561    0.0000 F   0  0  0  0  0  0  0  0  0  0  0  0
  1  2  2  0
  2  3  1  0
  2  4  1  0
  4  5  1  0
  4  6  1  0
  6  7  1  0
  7  8  1  0
  7  9  1  0
  7 10  1  0
 10 11  1  0
 10 12  1  0
 12 13  1  0
 13 14  1  0
 13 15  1  0
 13 16  1  0
 16 17  1  0
 16 18  1  0
 16 19  1  0
 19 20  1  0
 19 21  1  0
 19 22  1  0
 10 23  1  0
 23 24  1  0
 23 25  1  0
 23 26  1  0
  4 27  1  0
 27 28  1  0
 27 29  1  0
 27 30  1  0
M  END
$$$$

     RDKit          2D

 13 12  0  0  0  0  0  0  0  0999 V2000
   -1.3808    0.5861    0.0000 O   0  0  0  0  0  0  0  0  0  0  0  0
    0.0000    0.0000    0.0000 C   0  0  0  0  0  0  0  0  0  0  0  0
   -0.0000   -1.5000    0.0000 F   0  0  0  0  0  0  0  0  0  0  0  0
    1.2990    0.7500    0.0000 C   0  0  0  0  0  0  0  0  0  0  0  0
    2.0490   -0.5490    0.0000 F   0  0  0  0  0  0  0  0  0  0  0  0
    2.5981    1.5000    0.0000 C   0  0  0  0  0  0  0  0  0  0  0  0
    3.8971    2.2500    0.0000 F   0  0  0  0  0  0  0  0  0  0  0  0
    2.2520    2.3153    0.0000 F   0  0  0  0  0  0  0  0  0  0  0  0
    3.3481    0.2010    0.0000 F   0  0  0  0  0  0  0  0  0  0  0  0
    0.5490    2.0490    0.0000 S   0  0  0  0  0  0  0  0  0  0  0  0
   -0.2010    3.3481    0.0000 O   0  0  0  0  0  0  0  0  0  0  0  0
    1.1857    2.5288    0.0000 O   0  0  0  0  0  0  0  0  0  0  0  0
   -0.8317    1.4630    0.0000 F   0  0  0  0  0  0  0  0  0  0  0  0
  1  2  2  0
  2  3  1  0
  2  4  1  0
  4  5  1  0
  4  6  1  0
  6  7  1  0
  6  8  1  0
  6  9  1  0
  4 10  1  0
 10 11  2  0
 10 12  2  0
 10 13  1  0
M  END
$$$$

     RDKit          2D

 14 14  0  0  0  0  0  0  0  0999 V2000
    3.0000    0.0000    0.0000 O   0  0  0  0  0  0  0  0  0  0  0  0
    1.5000    0.0000    0.0000 C   0  0  0  0  0  0  0  0  0  0  0  0
    0.7500   -1.2990    0.0000 C   0  0  0  0  0  0  0  0  0  0  0  0
   -0.7500   -1.2990    0.0000 C   0  0  0  0  0  0  0  0  0  0  0  0
   -1.5000    0.0000    0.0000 C   0  0  0  0  0  0  0  0  0  0  0  0
   -0.7500    1.2990    0.0000 C   0  0  0  0  0  0  0  0  0  0  0  0
    0.7500    1.2990    0.0000 C   0  0  0  0  0  0  0  0  0  0  0  0
    1.5000    2.5981    0.0000 C   0  0  0  0  0  0  0  0  0  0  0  0
    2.7990    1.8481    0.0000 F   0  0  0  0  0  0  0  0  0  0  0  0
    0.2010    3.3481    0.0000 F   0  0  0  0  0  0  0  0  0  0  0  0
    2.2500    3.8971    0.0000 C   0  0  0  0  0  0  0  0  0  0  0  0
    3.0000    5.1962    0.0000 F   0  0  0  0  0  0  0  0  0  0  0  0
    0.9510    4.6471    0.0000 F   0  0  0  0  0  0  0  0  0  0  0  0
    3.5490    3.1471    0.0000 F   0  0  0  0  0  0  0  0  0  0  0  0
  1  2  2  0
  2  3  1  0
  3  4  1  0
  4  5  1  0
  5  6  1  0
  6  7  1  0
  7  8  1  0
  8  9  1  0
  8 10  1  0
  8 11  1  0
 11 12  1  0
 11 13  1  0
 11 14  1  0
  7  2  1  0
M  END
$$$$

     RDKit          2D

 16 16  0  0  0  0  0  0  0  0999 V2000
    2.7760    0.0000    0.0000 C   0  0  0  0  0  0  0  0  0  0  0  0
    1.2760    0.0000    0.0000 C   0  0  0  0  0  0  0  0  0  0  0  0
    0.3943    1.2135    0.0000 C   0  0  0  0  0  0  0  0  0  0  0  0
   -1.0323    0.7500    0.0000 C   0  0  0  0  0  0  0  0  0  0  0  0
   -1.0323   -0.7500    0.0000 C   0  0  0  0  0  0  0  0  0  0  0  0
   -2.2458   -1.6317    0.0000 O   0  0  0  0  0  0  0  0  0  0  0  0
   -3.6161   -1.0216    0.0000 C   0  0  0  0  0  0  0  0  0  0  0  0
   -4.8297   -1.9033    0.0000 C   0  0  0  0  0  0  0  0  0  0  0  0
   -6.0432   -2.7849    0.0000 F   0  0  0  0  0  0  0  0  0  0  0  0
   -5.7113   -0.6897    0.0000 F   0  0  0  0  0  0  0  0  0  0  0  0
   -3.9480   -3.1168    0.0000 F   0  0  0  0  0  0  0  0  0  0  0  0
   -3.7729    0.4702    0.0000 C   0  0  0  0  0  0  0  0  0  0  0  0
   -3.9297    1.9620    0.0000 F   0  0  0  0  0  0  0  0  0  0  0  0
   -5.2647    0.3134    0.0000 F   0  0  0  0  0  0  0  0  0  0  0  0
   -2.2811    0.6270    0.0000 F   0  0  0  0  0  0  0  0  0  0  0  0
    0.3943   -1.2135    0.0000 O   0  0  0  0  0  0  0  0  0  0  0  0
  1  2  1  0
  2  3  2  0
  3  4  1  0
  4  5  2  0
  5  6  1  0
  6  7  1  0
  7  8  1  0
  8  9  1  0
  8 10  1  0
  8 11  1  0
  7 12  1  0
 12 13  1  0
 12 14  1  0
 12 15  1  0
  5 16  1  0
 16  2  1  0
M  END
$$$$

     RDKit          2D

 27 26  0  0  0  0  0  0  0  0999 V2000
   -1.2990    0.7500    0.0000 O   0  0  0  0  0  0  0  0  0  0  0  0
    0.0000    0.0000    0.0000 C   0  0  0  0  0  0  0  0  0  0  0  0
    1.2990    0.7500    0.0000 C   0  0  0  0  0  0  0  0  0  0  0  0
    2.5981   -0.0000    0.0000 O   0  0  0  0  0  0  0  0  0  0  0  0
    3.8971    0.7500    0.0000 C   0  0  0  0  0  0  0  0  0  0  0  0
    5.1962   -0.0000    0.0000 C   0  0  0  0  0  0  0  0  0  0  0  0
    5.9462    1.2990    0.0000 F   0  0  0  0  0  0  0  0  0  0  0  0
    4.4462   -1.2990    0.0000 F   0  0  0  0  0  0  0  0  0  0  0  0
    6.4952   -0.7500    0.0000 C   0  0  0  0  0  0  0  0  0  0  0  0
    5.7452   -2.0490    0.0000 F   0  0  0  0  0  0  0  0  0  0  0  0
    7.2452    0.5490    0.0000 F   0  0  0  0  0  0  0  0  0  0  0  0
    7.7942   -1.5000    0.0000 C   0  0  0  0  0  0  0  0  0  0  0  0
    8.5442   -0.2010    0.0000 F   0  0  0  0  0  0  0  0  0  0  0  0
    7.0442   -2.7990    0.0000 F   0  0  0  0  0  0  0  0  0  0  0  0
    9.0933   -2.2500    0.0000 C   0  0  0  0  0  0  0  0  0  0  0  0
    8.3433   -3.5490    0.0000 F   0  0  0  0  0  0  0  0  0  0  0  0
    9.8433   -0.9510    0.0000 F   0  0  0  0  0  0  0  0  0  0  0  0
   10.3923   -3.0000    0.0000 C   0  0  0  0  0  0  0  0  0  0  0  0
   11.1423   -1.7010    0.0000 F   0  0  0  0  0  0  0  0  0  0  0  0
    9.6423   -4.2990    0.0000 F   0  0  0  0  0  0  0  0  0  0  0  0
   11.6913   -3.7500    0.0000 C   0  0  0  0  0  0  0  0  0  0  0  0
   10.9413   -5.0490    0.0000 F   0  0  0  0  0  0  0  0  0  0  0  0
   12.4413   -2.4510    0.0000 F   0  0  0  0  0  0  0  0  0  0  0  0
   12.9904   -4.5000    0.0000 C   0  0  0  0  0  0  0  0  0  0  0  0
   14.2894   -5.2500    0.0000 F   0  0  0  0  0  0  0  0  0  0  0  0
   13.7404   -3.2010    0.0000 F   0  0  0  0  0  0  0  0  0  0  0  0
   12.2404   -5.7990    0.0000 F   0  0  0  0  0  0  0  0  0  0  0  0
  1  2  1  0
  2  3  1  0
  3  4  1  0
  4  5  1  0
  5  6  1  0
  6  7  1  0
  6  8  1  0
  6  9  1  0
  9 10  1  0
  9 11  1  0
  9 12  1  0
 12 13  1  0
 12 14  1  0
 12 15  1  0
 15 16  1  0
 15 17  1  0
 15 18  1  0
 18 19  1  0
 18 20  1  0
 18 21  1  0
 21 22  1  0
 21 23  1  0
 21 24  1  0
 24 25  1  0
 24 26  1  0
 24 27  1  0
M  END
$$$$

     RDKit          2D

  8  7  0  0  0  0  0  0  0  0999 V2000
    0.0000    0.0000    0.0000 C   0  0  0  0  0  0  0  0  0  0  0  0
    1.2990    0.7500    0.0000 O   0  0  0  0  0  0  0  0  0  0  0  0
    2.5981   -0.0000    0.0000 C   0  0  0  0  0  0  0  0  0  0  0  0
    2.5981   -1.5000    0.0000 F   0  0  0  0  0  0  0  0  0  0  0  0
    3.8971    0.7500    0.0000 C   0  0  0  0  0  0  0  0  0  0  0  0
    5.1962    1.5000    0.0000 F   0  0  0  0  0  0  0  0  0  0  0  0
    4.6471   -0.5490    0.0000 F   0  0  0  0  0  0  0  0  0  0  0  0
    3.1471    2.0490    0.0000 F   0  0  0  0  0  0  0  0  0  0  0  0
  1  2  1  0
  2  3  1  0
  3  4  1  6
  3  5  1  0
  5  6  1  0
  5  7  1  0
  5  8  1  0
M  END
$$$$

     RDKit          2D

 39 40  0  0  0  0  0  0  0  0999 V2000
    0.7500   -6.4952    0.0000 O   0  0  0  0  0  0  0  0  0  0  0  0
    1.5000   -5.1962    0.0000 C   0  0  0  0  0  0  0  0  0  0  0  0
    0.7500   -3.8971    0.0000 O   0  0  0  0  0  0  0  0  0  0  0  0
    1.5000   -2.5981    0.0000 C   0  0  0  0  0  0  0  0  0  0  0  0
    0.7500   -1.2990    0.0000 C   0  0  0  0  0  0  0  0  0  0  0  0
    1.5000    0.0000    0.0000 C   0  0  0  0  0  0  0  0  0  0  0  0
    0.7500    1.2990    0.0000 C   0  0  0  0  0  0  0  0  0  0  0  0
   -0.7500    1.2990    0.0000 C   0  0  0  0  0  0  0  0  0  0  0  0
   -1.5000    2.5981    0.0000 C   0  0  0  0  0  0  0  0  0  0  0  0
   -0.7500    3.8971    0.0000 C   0  0  0  0  0  0  0  0  0  0  0  0
   -1.5000    5.1962    0.0000 C   0  0  0  0  0  0  0  0  0  0  0  0
   -0.2010    5.9462    0.0000 F   0  0  0  0  0  0  0  0  0  0  0  0
   -2.7990    4.4462    0.0000 F   0  0  0  0  0  0  0  0  0  0  0  0
   -2.2500    6.4952    0.0000 C   0  0  0  0  0  0  0  0  0  0  0  0
   -3.5490    5.7452    0.0000 F   0  0  0  0  0  0  0  0  0  0  0  0
   -0.9510    7.2452    0.0000 F   0  0  0  0  0  0  0  0  0  0  0  0
   -3.0000    7.7942    0.0000 C   0  0  0  0  0  0  0  0  0  0  0  0
   -1.7010    8.5442    0.0000 F   0  0  0  0  0  0  0  0  0  0  0  0
   -4.2990    7.0442    0.0000 F   0  0  0  0  0  0  0  0  0  0  0  0
   -3.7500    9.0933    0.0000 C   0  0  0  0  0  0  0  0  0  0  0  0
   -5.0490    8.3433    0.0000 F   0  0  0  0  0  0  0  0  0  0  0  0
   -2.4510    9.8433    0.0000 F   0  0  0  0  0  0  0  0  0  0  0  0
   -4.5000   10.3923    0.0000 C   0  0  0  0  0  0  0  0  0  0  0  0
   -3.2010   11.1423    0.0000 F   0  0  0  0  0  0  0  0  0  0  0  0
   -5.7990    9.6423    0.0000 F   0  0  0  0  0  0  0  0  0  0  0  0
   -5.2500   11.6913    0.0000 C   0  0  0  0  0  0  0  0  0  0  0  0
   -6.0000   12.9904    0.0000 F   0  0  0  0  0  0  0  0  0  0  0  0
   -6.5490   10.9413    0.0000 F   0  0  0  0  0  0  0  0  0  0  0  0
   -3.9510   12.4413    0.0000 F   0  0  0  0  0  0  0  0  0  0  0  0
   -1.5000    0.0000    0.0000 C   0  0  0  0  0  0  0  0  0  0  0  0
   -0.7500   -1.2990    0.0000 C   0  0  0  0  0  0  0  0  0  0  0  0
    3.0000   -5.1962    0.0000 O   0  0  0  0  0  0  0  0  0  0  0  0
    3.7500   -6.4952    0.0000 N   0  0  0  0  0  0  0  0  0  0  0  0
    5.2418   -6.6520    0.0000 C   0  0  0  0  0  0  0  0  0  0  0  0
    6.2455   -5.5373    0.0000 O   0  0  0  0  0  0  0  0  0  0  0  0
    5.5537   -8.1192    0.0000 C   0  0  0  0  0  0  0  0  0  0  0  0
    4.2546   -8.8692    0.0000 C   0  0  0  0  0  0  0  0  0  0  0  0
    3.1399   -7.8655    0.0000 C   0  0  0  0  0  0  0  0  0  0  0  0
    1.6727   -8.1774    0.0000 O   0  0  0  0  0  0  0  0  0  0  0  0
  1  2  2  0
  2  3  1  0
  3  4  1  0
  4  5  1  0
  5  6  2  0
  6  7  1  0
  7  8  2  0
  8  9  1  0
  9 10  1  0
 10 11  1  0
 11 12  1  0
 11 13  1  0
 11 14  1  0
 14 15  1  0
 14 16  1  0
 14 17  1  0
 17 18  1  0
 17 19  1  0
 17 20  1  0
 20 21  1  0
 20 22  1  0
 20 23  1  0
 23 24  1  0
 23 25  1  0
 23 26  1  0
 26 27  1  0
 26 28  1  0
 26 29  1  0
  8 30  1  0
 30 31  2  0
  2 32  1  0
 32 33  1  0
 33 34  1  0
 34 35  2  0
 34 36  1  0
 36 37  1  0
 37 38  1  0
 38 39  2  0
 31  5  1  0
 38 33  1  0
M  END
$$$$

     RDKit          2D

 14 13  0  0  0  0  0  0  0  0999 V2000
   -0.0000   -3.0000    0.0000 F   0  0  0  0  0  0  0  0  0  0  0  0
   -0.0000   -1.5000    0.0000 C   0  0  0  0  0  0  0  0  0  0  0  0
   -1.5000   -1.5000    0.0000 F   0  0  0  0  0  0  0  0  0  0  0  0
    1.2059   -1.6481    0.0000 F   0  0  0  0  0  0  0  0  0  0  0  0
   -0.0000    0.0000    0.0000 C   0  0  0  0  0  0  0  0  0  0  0  0
    1.2990    0.7500    0.0000 C   0  0  0  0  0  0  0  0  0  0  0  0
    2.5981   -0.0000    0.0000 C   0  0  0  0  0  0  0  0  0  0  0  0
    3.8971   -0.7500    0.0000 F   0  0  0  0  0  0  0  0  0  0  0  0
    2.1234   -1.1184    0.0000 F   0  0  0  0  0  0  0  0  0  0  0  0
    3.3481    1.2990    0.0000 F   0  0  0  0  0  0  0  0  0  0  0  0
    1.2990    2.2500    0.0000 C   0  0  0  0  0  0  0  0  0  0  0  0
    1.2990    3.7500    0.0000 F   0  0  0  0  0  0  0  0  0  0  0  0
   -0.2010    2.2500    0.0000 F   0  0  0  0  0  0  0  0  0  0  0  0
    2.7990    2.2500    0.0000 F   0  0  0  0  0  0  0  0  0  0  0  0
  1  2  1  0
  2  3  1  0
  2  4  1  0
  2  5  1  0
  5  6  2  0
  6  7  1  0
  7  8  1  0
  7  9  1  0
  7 10  1  0
  6 11  1  0
 11 12  1  0
 11 13  1  0
 11 14  1  0
M  END
$$$$

     RDKit          2D

 19 19  0  0  0  0  0  0  0  0999 V2000
    9.0000    0.0000    0.0000 F   0  0  0  0  0  0  0  0  0  0  0  0
    7.5000    0.0000    0.0000 C   0  0  0  0  0  0  0  0  0  0  0  0
    7.5000    1.5000    0.0000 F   0  0  0  0  0  0  0  0  0  0  0  0
    7.5000   -1.5000    0.0000 F   0  0  0  0  0  0  0  0  0  0  0  0
    6.0000    0.0000    0.0000 C   0  0  0  0  0  0  0  0  0  0  0  0
    6.0000   -1.5000    0.0000 F   0  0  0  0  0  0  0  0  0  0  0  0
    6.0000    1.5000    0.0000 F   0  0  0  0  0  0  0  0  0  0  0  0
    4.5000    0.0000    0.0000 C   0  0  0  0  0  0  0  0  0  0  0  0
    4.5000    1.5000    0.0000 F   0  0  0  0  0  0  0  0  0  0  0  0
    4.5000   -1.5000    0.0000 F   0  0  0  0  0  0  0  0  0  0  0  0
    3.0000    0.0000    0.0000 C   0  0  0  0  0  0  0  0  0  0  0  0
    3.0000   -1.5000    0.0000 F   0  0  0  0  0  0  0  0  0  0  0  0
    3.0000    1.5000    0.0000 F   0  0  0  0  0  0  0  0  0  0  0  0
    1.5000    0.0000    0.0000 C   0  0  0  0  0  0  0  0  0  0  0  0
    0.7500   -1.2990    0.0000 C   0  0  0  0  0  0  0  0  0  0  0  0
   -0.7500   -1.2990    0.0000 C   0  0  0  0  0  0  0  0  0  0  0  0
   -1.5000    0.0000    0.0000 C   0  0  0  0  0  0  0  0  0  0  0  0
   -0.7500    1.2990    0.0000 C   0  0  0  0  0  0  0  0  0  0  0  0
    0.7500    1.2990    0.0000 C   0  0  0  0  0  0  0  0  0  0  0  0
  1  2  1  0
  2  3  1  0
  2  4  1  0
  2  5  1  0
  5  6  1  0
  5  7  1  0
  5  8  1  0
  8  9  1  0
  8 10  1  0
  8 11  1  0
 11 12  1  0
 11 13  1  0
 11 14  1  0
 14 15  2  0
 15 16  1  0
 16 17  2  0
 17 18  1  0
 18 19  2  0
 19 14  1  0
M  END
$$$$

     RDKit          2D

 14 13  0  0  0  0  0  0  0  0999 V2000
   -1.2990    0.7500    0.0000 O   0  0  0  0  0  0  0  0  0  0  0  0
    0.0000    0.0000    0.0000 C   0  0  0  0  0  0  0  0  0  0  0  0
   -0.0000   -1.5000    0.0000 O   0  0  0  0  0  0  0  0  0  0  0  0
   -1.2990   -2.2500    0.0000 C   0  0  0  0  0  0  0  0  0  0  0  0
   -2.0490   -0.9510    0.0000 F   0  0  0  0  0  0  0  0  0  0  0  0
   -0.5490   -3.5490    0.0000 F   0  0  0  0  0  0  0  0  0  0  0  0
   -2.5981   -3.0000    0.0000 C   0  0  0  0  0  0  0  0  0  0  0  0
   -3.8971   -3.7500    0.0000 F   0  0  0  0  0  0  0  0  0  0  0  0
   -3.3481   -1.7010    0.0000 F   0  0  0  0  0  0  0  0  0  0  0  0
   -1.8481   -4.2990    0.0000 F   0  0  0  0  0  0  0  0  0  0  0  0
    1.2990    0.7500    0.0000 C   0  0  0  0  0  0  0  0  0  0  0  0
    2.5981    1.5000    0.0000 F   0  0  0  0  0  0  0  0  0  0  0  0
    2.0490   -0.5490    0.0000 F   0  0  0  0  0  0  0  0  0  0  0  0
    0.5490    2.0490    0.0000 F   0  0  0  0  0  0  0  0  0  0  0  0
  1  2  2  0
  2  3  1  0
  3  4  1  0
  4  5  1  0
  4  6  1  0
  4  7  1  0
  7  8  1  0
  7  9  1  0
  7 10  1  0
  2 11  1  0
 11 12  1  0
 11 13  1  0
 11 14  1  0
M  END
$$$$

     RDKit          2D

 10  9  0  0  0  0  0  0  0  0999 V2000
   -1.2990    0.7500    0.0000 F   0  0  0  0  0  0  0  0  0  0  0  0
    0.0000    0.0000    0.0000 C   0  0  0  0  0  0  0  0  0  0  0  0
   -0.0000   -1.5000    0.0000 Cl  0  0  0  0  0  0  0  0  0  0  0  0
    1.2990    0.7500    0.0000 C   0  0  0  0  0  0  0  0  0  0  0  0
    0.5490    2.0490    0.0000 F   0  0  0  0  0  0  0  0  0  0  0  0
    2.0490   -0.5490    0.0000 F   0  0  0  0  0  0  0  0  0  0  0  0
    2.5981    1.5000    0.0000 C   0  0  0  0  0  0  0  0  0  0  0  0
    3.8971    2.2500    0.0000 F   0  0  0  0  0  0  0  0  0  0  0  0
    1.8481    2.7990    0.0000 F   0  0  0  0  0  0  0  0  0  0  0  0
    3.3481    0.2010    0.0000 F   0  0  0  0  0  0  0  0  0  0  0  0
  1  2  1  0
  2  3  1  0
  2  4  1  0
  4  5  1  0
  4  6  1  0
  4  7  1  0
  7  8  1  0
  7  9  1  0
  7 10  1  0
M  END
$$$$

     RDKit          2D

 15 14  0  0  0  0  0  0  0  0999 V2000
   -0.0000   -1.5000    0.0000 N   0  0  0  0  0  0  0  0  0  0  0  0
    0.0000    0.0000    0.0000 C   0  0  0  0  0  0  0  0  0  0  0  0
    0.0000    1.5000    0.0000 C   0  0  0  0  0  0  0  0  0  0  0  0
    1.2990    2.2500    0.0000 C   0  0  0  0  0  0  0  0  0  0  0  0
    2.5981    1.5000    0.0000 O   0  0  0  0  0  0  0  0  0  0  0  0
    1.2990    3.7500    0.0000 O   0  0  0  0  0  0  0  0  0  0  0  0
    2.5981    4.5000    0.0000 C   0  0  0  0  0  0  0  0  0  0  0  0
    2.5981    6.0000    0.0000 C   0  0  0  0  0  0  0  0  0  0  0  0
    2.5981    7.5000    0.0000 F   0  0  0  0  0  0  0  0  0  0  0  0
    4.0981    6.0000    0.0000 F   0  0  0  0  0  0  0  0  0  0  0  0
    1.0981    6.0000    0.0000 F   0  0  0  0  0  0  0  0  0  0  0  0
    3.8971    3.7500    0.0000 C   0  0  0  0  0  0  0  0  0  0  0  0
    5.1962    3.0000    0.0000 F   0  0  0  0  0  0  0  0  0  0  0  0
    4.6471    5.0490    0.0000 F   0  0  0  0  0  0  0  0  0  0  0  0
    3.1471    2.4510    0.0000 F   0  0  0  0  0  0  0  0  0  0  0  0
  1  2  3  0
  2  3  1  0
  3  4  1  0
  4  5  2  0
  4  6  1  0
  6  7  1  0
  7  8  1  0
  8  9  1  0
  8 10  1  0
  8 11  1  0
  7 12  1  0
 12 13  1  0
 12 14  1  0
 12 15  1  0
M  END
$$$$

     RDKit          2D

 26 26  0  0  0  0  0  0  0  0999 V2000
    6.7500   -6.4952    0.0000 F   0  0  0  0  0  0  0  0  0  0  0  0
    6.0000   -5.1962    0.0000 C   0  0  0  0  0  0  0  0  0  0  0  0
    7.2990   -4.4462    0.0000 F   0  0  0  0  0  0  0  0  0  0  0  0
    4.7010   -5.9462    0.0000 F   0  0  0  0  0  0  0  0  0  0  0  0
    5.2500   -3.8971    0.0000 C   0  0  0  0  0  0  0  0  0  0  0  0
    3.9510   -4.6471    0.0000 F   0  0  0  0  0  0  0  0  0  0  0  0
    6.5490   -3.1471    0.0000 F   0  0  0  0  0  0  0  0  0  0  0  0
    4.5000   -2.5981    0.0000 C   0  0  0  0  0  0  0  0  0  0  0  0
    3.7926   -3.1311    0.0000 F   0  0  0  0  0  0  0  0  0  0  0  0
    5.3153   -2.2520    0.0000 F   0  0  0  0  0  0  0  0  0  0  0  0
    3.7500   -1.2990    0.0000 C   0  0  0  0  0  0  0  0  0  0  0  0
    3.0000    0.0000    0.0000 C   0  0  0  0  0  0  0  0  0  0  0  0
    1.5000    0.0000    0.0000 C   0  0  0  0  0  0  0  0  0  0  0  0
    0.7500   -1.2990    0.0000 C   0  0  0  0  0  0  0  0  0  0  0  0
   -0.7500   -1.2990    0.0000 C   0  0  0  0  0  0  0  0  0  0  0  0
   -1.5000    0.0000    0.0000 C   0  0  0  0  0  0  0  0  0  0  0  0
   -0.7500    1.2990    0.0000 C   0  0  0  0  0  0  0  0  0  0  0  0
    0.7500    1.2990    0.0000 C   0  0  0  0  0  0  0  0  0  0  0  0
    5.0490   -0.5490    0.0000 C   0  0  0  0  0  0  0  0  0  0  0  0
    6.3481    0.2010    0.0000 F   0  0  0  0  0  0  0  0  0  0  0  0
    5.5821   -1.2564    0.0000 F   0  0  0  0  0  0  0  0  0  0  0  0
    4.2990    0.7500    0.0000 F   0  0  0  0  0  0  0  0  0  0  0  0
    2.4510   -2.0490    0.0000 C   0  0  0  0  0  0  0  0  0  0  0  0
    1.1519   -2.7990    0.0000 F   0  0  0  0  0  0  0  0  0  0  0  0
    2.7970   -2.8644    0.0000 F   0  0  0  0  0  0  0  0  0  0  0  0
    1.6069   -1.1751    0.0000 F   0  0  0  0  0  0  0  0  0  0  0  0
  1  2  1  0
  2  3  1  0
  2  4  1  0
  2  5  1  0
  5  6  1  0
  5  7  1  0
  5  8  1  0
  8  9  1  0
  8 10  1  0
  8 11  1  0
 11 12  1  0
 12 13  1  0
 13 14  2  0
 14 15  1  0
 15 16  2  0
 16 17  1  0
 17 18  2  0
 11 19  1  0
 19 20  1  0
 19 21  1  0
 19 22  1  0
 11 23  1  0
 23 24  1  0
 23 25  1  0
 23 26  1  0
 18 13  1  0
M  END
$$$$

     RDKit          2D

 15 14  0  0  0  0  0  0  0  0999 V2000
    0.0000    0.0000    0.0000 C   0  0  0  0  0  0  0  0  0  0  0  0
    1.2990    0.7500    0.0000 C   0  0  0  0  0  0  0  0  0  0  0  0
    2.5981   -0.0000    0.0000 C   0  0  0  0  0  0  0  0  0  0  0  0
    3.3481    1.2990    0.0000 F   0  0  0  0  0  0  0  0  0  0  0  0
    1.8481   -1.2990    0.0000 F   0  0  0  0  0  0  0  0  0  0  0  0
    3.8971   -0.7500    0.0000 C   0  0  0  0  0  0  0  0  0  0  0  0
    3.1471   -2.0490    0.0000 F   0  0  0  0  0  0  0  0  0  0  0  0
    4.6471    0.5490    0.0000 F   0  0  0  0  0  0  0  0  0  0  0  0
    5.1962   -1.5000    0.0000 C   0  0  0  0  0  0  0  0  0  0  0  0
    5.9462   -0.2010    0.0000 F   0  0  0  0  0  0  0  0  0  0  0  0
    4.4462   -2.7990    0.0000 F   0  0  0  0  0  0  0  0  0  0  0  0
    6.4952   -2.2500    0.0000 C   0  0  0  0  0  0  0  0  0  0  0  0
    7.7942   -3.0000    0.0000 F   0  0  0  0  0  0  0  0  0  0  0  0
    5.7452   -3.5490    0.0000 F   0  0  0  0  0  0  0  0  0  0  0  0
    7.2452   -0.9510    0.0000 F   0  0  0  0  0  0  0  0  0  0  0  0
  1  2  1  0
  2  3  1  0
  3  4  1  0
  3  5  1  0
  3  6  1  0
  6  7  1  0
  6  8  1  0
  6  9  1  0
  9 10  1  0
  9 11  1  0
  9 12  1  0
 12 13  1  0
 12 14  1  0
 12 15  1  0
M  END
$$$$

     RDKit          2D

 13 13  0  0  0  0  0  0  0  0999 V2000
    2.3907    1.0037    0.0000 F   0  0  0  0  0  0  0  0  0  0  0  0
    1.2760    0.0000    0.0000 C   0  0  0  0  0  0  0  0  0  0  0  0
    2.3907   -1.0037    0.0000 F   0  0  0  0  0  0  0  0  0  0  0  0
    0.3943    1.2135    0.0000 C   0  0  0  0  0  0  0  0  0  0  0  0
   -1.0323    0.7500    0.0000 C   0  0  0  0  0  0  0  0  0  0  0  0
   -2.5241    0.5932    0.0000 F   0  0  0  0  0  0  0  0  0  0  0  0
   -1.3442    2.2172    0.0000 F   0  0  0  0  0  0  0  0  0  0  0  0
   -1.0323   -0.7500    0.0000 C   0  0  0  0  0  0  0  0  0  0  0  0
   -1.3442   -2.2172    0.0000 F   0  0  0  0  0  0  0  0  0  0  0  0
   -2.5241   -0.5932    0.0000 F   0  0  0  0  0  0  0  0  0  0  0  0
    0.3943   -1.2135    0.0000 C   0  0  0  0  0  0  0  0  0  0  0  0
    1.6933   -1.9635    0.0000 F   0  0  0  0  0  0  0  0  0  0  0  0
   -0.2158   -2.5838    0.0000 F   0  0  0  0  0  0  0  0  0  0  0  0
  1  2  1  0
  2  3  1  0
  2  4  1  0
  4  5  1  0
  5  6  1  0
  5  7  1  0
  5  8  1  0
  8  9  1  0
  8 10  1  0
  8 11  1  0
 11 12  1  0
 11 13  1  0
 11  2  1  0
M  END
$$$$

     RDKit          2D

 23 22  0  0  0  0  0  0  0  0999 V2000
    6.4952    3.7500    0.0000 C   0  0  0  0  0  0  0  0  0  0  0  0
    5.1962    3.0000    0.0000 C   0  0  0  0  0  0  0  0  0  0  0  0
    5.1962    1.5000    0.0000 S   0  0  0  0  0  0  0  0  0  0  0  0
    6.5769    0.9139    0.0000 O   0  0  0  0  0  0  0  0  0  0  0  0
    3.8971    0.7500    0.0000 C   0  0  0  0  0  0  0  0  0  0  0  0
    3.1471    2.0490    0.0000 F   0  0  0  0  0  0  0  0  0  0  0  0
    2.5981   -0.0000    0.0000 F   0  0  0  0  0  0  0  0  0  0  0  0
    4.6471   -0.5490    0.0000 C   0  0  0  0  0  0  0  0  0  0  0  0
    3.3481   -1.2990    0.0000 F   0  0  0  0  0  0  0  0  0  0  0  0
    6.0279    0.0370    0.0000 F   0  0  0  0  0  0  0  0  0  0  0  0
    5.3971   -1.8481    0.0000 C   0  0  0  0  0  0  0  0  0  0  0  0
    6.6962   -1.0981    0.0000 F   0  0  0  0  0  0  0  0  0  0  0  0
    4.0981   -2.5981    0.0000 F   0  0  0  0  0  0  0  0  0  0  0  0
    6.1471   -3.1471    0.0000 C   0  0  0  0  0  0  0  0  0  0  0  0
    7.4462   -2.3971    0.0000 F   0  0  0  0  0  0  0  0  0  0  0  0
    4.8481   -3.8971    0.0000 F   0  0  0  0  0  0  0  0  0  0  0  0
    6.8971   -4.4462    0.0000 C   0  0  0  0  0  0  0  0  0  0  0  0
    5.5981   -5.1962    0.0000 F   0  0  0  0  0  0  0  0  0  0  0  0
    8.1962   -3.6962    0.0000 F   0  0  0  0  0  0  0  0  0  0  0  0
    7.6471   -5.7452    0.0000 C   0  0  0  0  0  0  0  0  0  0  0  0
    8.3971   -7.0442    0.0000 F   0  0  0  0  0  0  0  0  0  0  0  0
    8.9462   -4.9952    0.0000 F   0  0  0  0  0  0  0  0  0  0  0  0
    6.3481   -6.4952    0.0000 F   0  0  0  0  0  0  0  0  0  0  0  0
  1  2  2  0
  2  3  1  0
  3  4  2  0
  3  5  1  0
  5  6  1  0
  5  7  1  0
  5  8  1  0
  8  9  1  0
  8 10  1  0
  8 11  1  0
 11 12  1  0
 11 13  1  0
 11 14  1  0
 14 15  1  0
 14 16  1  0
 14 17  1  0
 17 18  1  0
 17 19  1  0
 17 20  1  0
 20 21  1  0
 20 22  1  0
 20 23  1  0
M  END
$$$$

     RDKit          2D

 27 26  0  0  0  0  0  0  0  0999 V2000
    1.2990    2.2500    0.0000 O   0  0  0  0  0  0  0  0  0  0  0  0
    1.2990    0.7500    0.0000 C   0  0  0  0  0  0  0  0  0  0  0  0
    0.0000    0.0000    0.0000 C   0  0  0  0  0  0  0  0  0  0  0  0
   -1.2990    0.7500    0.0000 I   0  0  0  0  0  0  0  0  0  0  0  0
    2.5981   -0.0000    0.0000 N   0  0  0  0  0  0  0  0  0  0  0  0
    3.8971    0.7500    0.0000 C   0  0  0  0  0  0  0  0  0  0  0  0
    5.1962   -0.0000    0.0000 C   0  0  0  0  0  0  0  0  0  0  0  0
    6.4952    0.7500    0.0000 C   0  0  0  0  0  0  0  0  0  0  0  0
    7.7942   -0.0000    0.0000 C   0  0  0  0  0  0  0  0  0  0  0  0
    8.5442    1.2990    0.0000 F   0  0  0  0  0  0  0  0  0  0  0  0
    7.0442   -1.2990    0.0000 F   0  0  0  0  0  0  0  0  0  0  0  0
    9.0933   -0.7500    0.0000 C   0  0  0  0  0  0  0  0  0  0  0  0
    8.3433   -2.0490    0.0000 F   0  0  0  0  0  0  0  0  0  0  0  0
    9.8433    0.5490    0.0000 F   0  0  0  0  0  0  0  0  0  0  0  0
   10.3923   -1.5000    0.0000 C   0  0  0  0  0  0  0  0  0  0  0  0
   11.1423   -0.2010    0.0000 F   0  0  0  0  0  0  0  0  0  0  0  0
    9.6423   -2.7990    0.0000 F   0  0  0  0  0  0  0  0  0  0  0  0
   11.6913   -2.2500    0.0000 C   0  0  0  0  0  0  0  0  0  0  0  0
   10.9413   -3.5490    0.0000 F   0  0  0  0  0  0  0  0  0  0  0  0
   12.4413   -0.9510    0.0000 F   0  0  0  0  0  0  0  0  0  0  0  0
   12.9904   -3.0000    0.0000 C   0  0  0  0  0  0  0  0  0  0  0  0
   13.7404   -1.7010    0.0000 F   0  0  0  0  0  0  0  0  0  0  0  0
   12.2404   -4.2990    0.0000 F   0  0  0  0  0  0  0  0  0  0  0  0
   14.2894   -3.7500    0.0000 C   0  0  0  0  0  0  0  0  0  0  0  0
   15.5885   -4.5000    0.0000 F   0  0  0  0  0  0  0  0  0  0  0  0
   13.5394   -5.0490    0.0000 F   0  0  0  0  0  0  0  0  0  0  0  0
   15.0394   -2.4510    0.0000 F   0  0  0  0  0  0  0  0  0  0  0  0
  1  2  2  0
  2  3  1  0
  3  4  1  0
  2  5  1  0
  5  6  1  0
  6  7  1  0
  7  8  1  0
  8  9  1  0
  9 10  1  0
  9 11  1  0
  9 12  1  0
 12 13  1  0
 12 14  1  0
 12 15  1  0
 15 16  1  0
 15 17  1  0
 15 18  1  0
 18 19  1  0
 18 20  1  0
 18 21  1  0
 21 22  1  0
 21 23  1  0
 21 24  1  0
 24 25  1  0
 24 26  1  0
 24 27  1  0
M  END
$$$$

     RDKit          2D

 18 18  0  0  0  0  0  0  0  0999 V2000
    3.5861    1.3808    0.0000 O   0  0  0  0  0  0  0  0  0  0  0  0
    3.0000    0.0000    0.0000 C   0  0  0  0  0  0  0  0  0  0  0  0
    1.5000    0.0000    0.0000 C   0  0  0  0  0  0  0  0  0  0  0  0
    0.7500   -1.2990    0.0000 C   0  0  0  0  0  0  0  0  0  0  0  0
   -0.7500   -1.2990    0.0000 C   0  0  0  0  0  0  0  0  0  0  0  0
   -1.5000    0.0000    0.0000 C   0  0  0  0  0  0  0  0  0  0  0  0
   -0.7500    1.2990    0.0000 C   0  0  0  0  0  0  0  0  0  0  0  0
    0.7500    1.2990    0.0000 C   0  0  0  0  0  0  0  0  0  0  0  0
    3.7500   -1.2990    0.0000 C   0  0  0  0  0  0  0  0  0  0  0  0
    2.4510   -2.0490    0.0000 F   0  0  0  0  0  0  0  0  0  0  0  0
    4.5000   -2.5981    0.0000 C   0  0  0  0  0  0  0  0  0  0  0  0
    5.2500   -3.8971    0.0000 F   0  0  0  0  0  0  0  0  0  0  0  0
    3.2010   -3.3481    0.0000 F   0  0  0  0  0  0  0  0  0  0  0  0
    5.3153   -2.2520    0.0000 F   0  0  0  0  0  0  0  0  0  0  0  0
    5.0490   -0.5490    0.0000 C   0  0  0  0  0  0  0  0  0  0  0  0
    6.3481    0.2010    0.0000 F   0  0  0  0  0  0  0  0  0  0  0  0
    5.5821   -1.2564    0.0000 F   0  0  0  0  0  0  0  0  0  0  0  0
    4.4630    0.8317    0.0000 F   0  0  0  0  0  0  0  0  0  0  0  0
  1  2  2  0
  2  3  1  0
  3  4  2  0
  4  5  1  0
  5  6  2  0
  6  7  1  0
  7  8  2  0
  2  9  1  0
  9 10  1  0
  9 11  1  0
 11 12  1  0
 11 13  1  0
 11 14  1  0
  9 15  1  0
 15 16  1  0
 15 17  1  0
 15 18  1  0
  8  3  1  0
M  END
$$$$

     RDKit          2D

 11 10  0  0  0  0  0  0  0  0999 V2000
   -3.8971    0.7500    0.0000 O   0  0  0  0  0  0  0  0  0  0  0  0
   -2.5981    0.0000    0.0000 S   0  0  0  0  0  0  0  0  0  0  0  0
   -2.5981   -1.5000    0.0000 Cl  0  0  0  0  0  0  0  0  0  0  0  0
   -1.2990    0.7500    0.0000 O   0  0  0  0  0  0  0  0  0  0  0  0
    0.0000    0.0000    0.0000 C   0  0  0  0  0  0  0  0  0  0  0  0
    1.2990    0.7500    0.0000 C   0  0  0  0  0  0  0  0  0  0  0  0
    2.0490   -0.5490    0.0000 F   0  0  0  0  0  0  0  0  0  0  0  0
    0.5490    2.0490    0.0000 F   0  0  0  0  0  0  0  0  0  0  0  0
    2.5981    1.5000    0.0000 C   0  0  0  0  0  0  0  0  0  0  0  0
    2.5981    3.0000    0.0000 F   0  0  0  0  0  0  0  0  0  0  0  0
    3.8971    0.7500    0.0000 F   0  0  0  0  0  0  0  0  0  0  0  0
  1  2  2  0
  2  3  1  0
  2  4  1  0
  4  5  1  0
  5  6  1  0
  6  7  1  0
  6  8  1  0
  6  9  1  0
  9 10  1  0
  9 11  1  0
M  END
$$$$

     RDKit          2D

 41 40  0  0  0  0  0  0  0  0999 V2000
    2.5981    1.5000    0.0000 F   0  0  0  0  0  0  0  0  0  0  0  0
    1.2990    0.7500    0.0000 C   0  0  0  0  0  0  0  0  0  0  0  0
    2.0490   -0.5490    0.0000 F   0  0  0  0  0  0  0  0  0  0  0  0
    0.5490    2.0490    0.0000 F   0  0  0  0  0  0  0  0  0  0  0  0
    0.0000    0.0000    0.0000 C   0  0  0  0  0  0  0  0  0  0  0  0
   -0.0000   -1.5000    0.0000 O   0  0  0  0  0  0  0  0  0  0  0  0
   -1.2990   -2.2500    0.0000 Si  0  0  0  0  0  4  0  0  0  0  0  0
   -2.5981   -3.0000    0.0000 O   0  0  0  0  0  0  0  0  0  0  0  0
   -3.8971   -2.2500    0.0000 C   0  0  0  0  0  0  0  0  0  0  0  0
   -5.1962   -3.0000    0.0000 C   0  0  0  0  0  0  0  0  0  0  0  0
   -6.4952   -3.7500    0.0000 F   0  0  0  0  0  0  0  0  0  0  0  0
   -6.0989   -1.8021    0.0000 F   0  0  0  0  0  0  0  0  0  0  0  0
   -4.6101   -4.3808    0.0000 F   0  0  0  0  0  0  0  0  0  0  0  0
   -3.8971   -0.7500    0.0000 C   0  0  0  0  0  0  0  0  0  0  0  0
   -4.2601    0.7054    0.0000 F   0  0  0  0  0  0  0  0  0  0  0  0
   -4.6883   -0.6528    0.0000 F   0  0  0  0  0  0  0  0  0  0  0  0
   -4.6883   -0.8472    0.0000 F   0  0  0  0  0  0  0  0  0  0  0  0
   -0.5490   -3.5490    0.0000 O   0  0  0  0  0  0  0  0  0  0  0  0
   -1.2990   -4.8481    0.0000 C   0  0  0  0  0  0  0  0  0  0  0  0
   -0.5490   -6.1471    0.0000 C   0  0  0  0  0  0  0  0  0  0  0  0
    0.2010   -7.4462    0.0000 F   0  0  0  0  0  0  0  0  0  0  0  0
   -1.8481   -6.8971    0.0000 F   0  0  0  0  0  0  0  0  0  0  0  0
    0.7500   -5.3971    0.0000 F   0  0  0  0  0  0  0  0  0  0  0  0
   -2.7990   -4.8481    0.0000 C   0  0  0  0  0  0  0  0  0  0  0  0
   -4.2879   -5.0309    0.0000 F   0  0  0  0  0  0  0  0  0  0  0  0
   -2.7990   -6.3481    0.0000 F   0  0  0  0  0  0  0  0  0  0  0  0
   -2.9819   -3.3593    0.0000 F   0  0  0  0  0  0  0  0  0  0  0  0
   -2.0490   -0.9510    0.0000 O   0  0  0  0  0  0  0  0  0  0  0  0
   -3.5490   -0.9510    0.0000 C   0  0  0  0  0  0  0  0  0  0  0  0
   -4.2990    0.3481    0.0000 C   0  0  0  0  0  0  0  0  0  0  0  0
   -5.0490    1.6471    0.0000 F   0  0  0  0  0  0  0  0  0  0  0  0
   -5.7410   -0.0653    0.0000 F   0  0  0  0  0  0  0  0  0  0  0  0
   -3.1011    1.2508    0.0000 F   0  0  0  0  0  0  0  0  0  0  0  0
   -4.2990   -2.2500    0.0000 C   0  0  0  0  0  0  0  0  0  0  0  0
   -5.3411   -3.3290    0.0000 F   0  0  0  0  0  0  0  0  0  0  0  0
   -5.6798   -1.6639    0.0000 F   0  0  0  0  0  0  0  0  0  0  0  0
   -3.1011   -3.1528    0.0000 F   0  0  0  0  0  0  0  0  0  0  0  0
   -1.2990    0.7500    0.0000 C   0  0  0  0  0  0  0  0  0  0  0  0
   -2.4970    1.6528    0.0000 F   0  0  0  0  0  0  0  0  0  0  0  0
   -2.3411   -0.3290    0.0000 F   0  0  0  0  0  0  0  0  0  0  0  0
   -0.5490    2.0490    0.0000 F   0  0  0  0  0  0  0  0  0  0  0  0
  1  2  1  0
  2  3  1  0
  2  4  1  0
  2  5  1  0
  5  6  1  0
  6  7  1  0
  7  8  1  0
  8  9  1  0
  9 10  1  0
 10 11  1  0
 10 12  1  0
 10 13  1  0
  9 14  1  0
 14 15  1  0
 14 16  1  0
 14 17  1  0
  7 18  1  0
 18 19  1  0
 19 20  1  0
 20 21  1  0
 20 22  1  0
 20 23  1  0
 19 24  1  0
 24 25  1  0
 24 26  1  0
 24 27  1  0
  7 28  1  0
 28 29  1  0
 29 30  1  0
 30 31  1  0
 30 32  1  0
 30 33  1  0
 29 34  1  0
 34 35  1  0
 34 36  1  0
 34 37  1  0
  5 38  1  0
 38 39  1  0
 38 40  1  0
 38 41  1  0
M  END
$$$$

     RDKit          2D

 26 25  0  0  0  0  0  0  0  0999 V2000
    0.0000    0.0000    0.0000 C   0  0  0  0  0  0  0  0  0  0  0  0
    1.2990    0.7500    0.0000 C   0  0  0  0  0  0  0  0  0  0  0  0
    2.5981   -0.0000    0.0000 O   0  0  0  0  0  0  0  0  0  0  0  0
    3.8971    0.7500    0.0000 C   0  0  0  0  0  0  0  0  0  0  0  0
    3.8971    2.2500    0.0000 O   0  0  0  0  0  0  0  0  0  0  0  0
    5.1962   -0.0000    0.0000 C   0  0  0  0  0  0  0  0  0  0  0  0
    6.4952    0.7500    0.0000 C   0  0  0  0  0  0  0  0  0  0  0  0
    7.7942   -0.0000    0.0000 C   0  0  0  0  0  0  0  0  0  0  0  0
    8.5442    1.2990    0.0000 F   0  0  0  0  0  0  0  0  0  0  0  0
    7.0442   -1.2990    0.0000 F   0  0  0  0  0  0  0  0  0  0  0  0
    9.0933   -0.7500    0.0000 C   0  0  0  0  0  0  0  0  0  0  0  0
    8.3433   -2.0490    0.0000 F   0  0  0  0  0  0  0  0  0  0  0  0
    9.8433    0.5490    0.0000 F   0  0  0  0  0  0  0  0  0  0  0  0
   10.3923   -1.5000    0.0000 C   0  0  0  0  0  0  0  0  0  0  0  0
   11.1423   -0.2010    0.0000 F   0  0  0  0  0  0  0  0  0  0  0  0
    9.6423   -2.7990    0.0000 F   0  0  0  0  0  0  0  0  0  0  0  0
   11.6913   -2.2500    0.0000 C   0  0  0  0  0  0  0  0  0  0  0  0
   10.9413   -3.5490    0.0000 F   0  0  0  0  0  0  0  0  0  0  0  0
   12.4413   -0.9510    0.0000 F   0  0  0  0  0  0  0  0  0  0  0  0
   12.9904   -3.0000    0.0000 C   0  0  0  0  0  0  0  0  0  0  0  0
   13.7404   -1.7010    0.0000 F   0  0  0  0  0  0  0  0  0  0  0  0
   12.2404   -4.2990    0.0000 F   0  0  0  0  0  0  0  0  0  0  0  0
   14.2894   -3.7500    0.0000 C   0  0  0  0  0  0  0  0  0  0  0  0
   15.5885   -4.5000    0.0000 F   0  0  0  0  0  0  0  0  0  0  0  0
   13.5394   -5.0490    0.0000 F   0  0  0  0  0  0  0  0  0  0  0  0
   15.0394   -2.4510    0.0000 F   0  0  0  0  0  0  0  0  0  0  0  0
  1  2  1  0
  2  3  1  0
  3  4  1  0
  4  5  2  0
  4  6  1  0
  6  7  1  0
  7  8  1  0
  8  9  1  0
  8 10  1  0
  8 11  1  0
 11 12  1  0
 11 13  1  0
 11 14  1  0
 14 15  1  0
 14 16  1  0
 14 17  1  0
 17 18  1  0
 17 19  1  0
 17 20  1  0
 20 21  1  0
 20 22  1  0
 20 23  1  0
 23 24  1  0
 23 25  1  0
 23 26  1  0
M  END
$$$$

     RDKit          2D

 12 11  0  0  0  0  0  0  0  0999 V2000
   -1.2990    0.7500    0.0000 O   0  0  0  0  0  0  0  0  0  0  0  0
    0.0000    0.0000    0.0000 C   0  0  0  0  0  0  0  0  0  0  0  0
    1.2990    0.7500    0.0000 C   0  0  0  0  0  0  0  0  0  0  0  0
    0.5490    2.0490    0.0000 O   0  0  0  0  0  0  0  0  0  0  0  0
    2.5981    1.5000    0.0000 C   0  0  0  0  0  0  0  0  0  0  0  0
    3.8971    2.2500    0.0000 F   0  0  0  0  0  0  0  0  0  0  0  0
    1.8481    2.7990    0.0000 F   0  0  0  0  0  0  0  0  0  0  0  0
    3.1311    0.7926    0.0000 F   0  0  0  0  0  0  0  0  0  0  0  0
    2.0490   -0.5490    0.0000 C   0  0  0  0  0  0  0  0  0  0  0  0
    2.7990   -1.8481    0.0000 F   0  0  0  0  0  0  0  0  0  0  0  0
    0.7500   -1.2990    0.0000 F   0  0  0  0  0  0  0  0  0  0  0  0
    2.8644   -0.2030    0.0000 F   0  0  0  0  0  0  0  0  0  0  0  0
  1  2  1  0
  2  3  1  0
  3  4  1  0
  3  5  1  0
  5  6  1  0
  5  7  1  0
  5  8  1  0
  3  9  1  0
  9 10  1  0
  9 11  1  0
  9 12  1  0
M  END
$$$$

     RDKit          2D

 12 11  0  0  0  0  0  0  0  0999 V2000
    0.0000    0.0000    0.0000 C   0  0  0  0  0  0  0  0  0  0  0  0
    1.2990    0.7500    0.0000 C   0  0  0  0  0  0  0  0  0  0  0  0
    2.5981   -0.0000    0.0000 O   0  0  0  0  0  0  0  0  0  0  0  0
    3.8971    0.7500    0.0000 C   0  0  0  0  0  0  0  0  0  0  0  0
    3.1471    2.0490    0.0000 F   0  0  0  0  0  0  0  0  0  0  0  0
    4.6471   -0.5490    0.0000 F   0  0  0  0  0  0  0  0  0  0  0  0
    5.1962    1.5000    0.0000 C   0  0  0  0  0  0  0  0  0  0  0  0
    4.4462    2.7990    0.0000 F   0  0  0  0  0  0  0  0  0  0  0  0
    5.9462    0.2010    0.0000 F   0  0  0  0  0  0  0  0  0  0  0  0
    6.4952    2.2500    0.0000 O   0  0  0  0  0  0  0  0  0  0  0  0
    7.7942    1.5000    0.0000 C   0  0  0  0  0  0  0  0  0  0  0  0
    9.0933    2.2500    0.0000 C   0  0  0  0  0  0  0  0  0  0  0  0
  1  2  1  0
  2  3  1  0
  3  4  1  0
  4  5  1  0
  4  6  1  0
  4  7  1  0
  7  8  1  0
  7  9  1  0
  7 10  1  0
 10 11  1  0
 11 12  1  0
M  END
$$$$

     RDKit          2D

 22 21  0  0  0  0  0  0  0  0999 V2000
    9.0933    5.2500    0.0000 F   0  0  0  0  0  0  0  0  0  0  0  0
    7.7942    4.5000    0.0000 C   0  0  0  0  0  0  0  0  0  0  0  0
    7.0442    5.7990    0.0000 F   0  0  0  0  0  0  0  0  0  0  0  0
    8.5442    3.2010    0.0000 F   0  0  0  0  0  0  0  0  0  0  0  0
    6.4952    3.7500    0.0000 C   0  0  0  0  0  0  0  0  0  0  0  0
    7.2452    2.4510    0.0000 F   0  0  0  0  0  0  0  0  0  0  0  0
    5.7452    5.0490    0.0000 F   0  0  0  0  0  0  0  0  0  0  0  0
    5.1962    3.0000    0.0000 C   0  0  0  0  0  0  0  0  0  0  0  0
    4.4462    4.2990    0.0000 F   0  0  0  0  0  0  0  0  0  0  0  0
    5.9462    1.7010    0.0000 F   0  0  0  0  0  0  0  0  0  0  0  0
    3.8971    2.2500    0.0000 C   0  0  0  0  0  0  0  0  0  0  0  0
    4.6471    0.9510    0.0000 F   0  0  0  0  0  0  0  0  0  0  0  0
    3.1471    3.5490    0.0000 F   0  0  0  0  0  0  0  0  0  0  0  0
    2.5981    1.5000    0.0000 C   0  0  0  0  0  0  0  0  0  0  0  0
    1.8481    2.7990    0.0000 F   0  0  0  0  0  0  0  0  0  0  0  0
    3.3481    0.2010    0.0000 F   0  0  0  0  0  0  0  0  0  0  0  0
    1.2990    0.7500    0.0000 C   0  0  0  0  0  0  0  0  0  0  0  0
    2.0490   -0.5490    0.0000 F   0  0  0  0  0  0  0  0  0  0  0  0
    0.5490    2.0490    0.0000 F   0  0  0  0  0  0  0  0  0  0  0  0
    0.0000    0.0000    0.0000 C   0  0  0  0  0  0  0  0  0  0  0  0
   -1.2990    0.7500    0.0000 C   0  0  0  0  0  0  0  0  0  0  0  0
   -2.5981    0.0000    0.0000 I   0  0  0  0  0  0  0  0  0  0  0  0
  1  2  1  0
  2  3  1  0
  2  4  1  0
  2  5  1  0
  5  6  1  0
  5  7  1  0
  5  8  1  0
  8  9  1  0
  8 10  1  0
  8 11  1  0
 11 12  1  0
 11 13  1  0
 11 14  1  0
 14 15  1  0
 14 16  1  0
 14 17  1  0
 17 18  1  0
 17 19  1  0
 17 20  1  0
 20 21  1  0
 21 22  1  0
M  END
$$$$

     RDKit          2D

 15 15  0  0  0  0  0  0  0  0999 V2000
    5.5607    0.0000    0.0000 F   0  0  0  0  0  0  0  0  0  0  0  0
    4.0607    0.0000    0.0000 C   0  0  0  0  0  0  0  0  0  0  0  0
    4.0607    1.5000    0.0000 F   0  0  0  0  0  0  0  0  0  0  0  0
    4.0607   -1.5000    0.0000 F   0  0  0  0  0  0  0  0  0  0  0  0
    2.5607    0.0000    0.0000 C   0  0  0  0  0  0  0  0  0  0  0  0
    2.5607   -1.5000    0.0000 F   0  0  0  0  0  0  0  0  0  0  0  0
    2.5607    1.5000    0.0000 F   0  0  0  0  0  0  0  0  0  0  0  0
    1.0607    0.0000    0.0000 C   0  0  0  0  0  0  0  0  0  0  0  0
   -0.0000   -1.0607    0.0000 C   0  0  0  0  0  0  0  0  0  0  0  0
   -1.0607    0.0000    0.0000 C   0  0  0  0  0  0  0  0  0  0  0  0
   -2.1213   -1.0607    0.0000 F   0  0  0  0  0  0  0  0  0  0  0  0
   -2.1213    1.0607    0.0000 F   0  0  0  0  0  0  0  0  0  0  0  0
    0.0000    1.0607    0.0000 C   0  0  0  0  0  0  0  0  0  0  0  0
   -1.0607    2.1213    0.0000 F   0  0  0  0  0  0  0  0  0  0  0  0
    1.0607    2.1213    0.0000 F   0  0  0  0  0  0  0  0  0  0  0  0
  1  2  1  0
  2  3  1  0
  2  4  1  0
  2  5  1  0
  5  6  1  0
  5  7  1  0
  5  8  1  0
  8  9  1  0
  9 10  1  0
 10 11  1  0
 10 12  1  0
 10 13  1  0
 13 14  1  0
 13 15  1  0
 13  8  1  0
M  END
$$$$

     RDKit          2D

 17 17  0  0  0  0  0  0  0  0999 V2000
    6.0000    0.0000    0.0000 F   0  0  0  0  0  0  0  0  0  0  0  0
    4.5000    0.0000    0.0000 C   0  0  0  0  0  0  0  0  0  0  0  0
    4.5000    1.5000    0.0000 F   0  0  0  0  0  0  0  0  0  0  0  0
    4.6080   -0.8791    0.0000 F   0  0  0  0  0  0  0  0  0  0  0  0
    3.0000    0.0000    0.0000 C   0  0  0  0  0  0  0  0  0  0  0  0
    3.0000    1.5000    0.0000 F   0  0  0  0  0  0  0  0  0  0  0  0
    1.5000    0.0000    0.0000 C   0  0  0  0  0  0  0  0  0  0  0  0
    0.7500   -1.2990    0.0000 C   0  0  0  0  0  0  0  0  0  0  0  0
   -0.7500   -1.2990    0.0000 C   0  0  0  0  0  0  0  0  0  0  0  0
   -1.5000    0.0000    0.0000 C   0  0  0  0  0  0  0  0  0  0  0  0
   -3.0000    0.0000    0.0000 I   0  0  0  0  0  0  0  0  0  0  0  0
   -0.7500    1.2990    0.0000 C   0  0  0  0  0  0  0  0  0  0  0  0
    0.7500    1.2990    0.0000 C   0  0  0  0  0  0  0  0  0  0  0  0
    3.0000   -1.5000    0.0000 C   0  0  0  0  0  0  0  0  0  0  0  0
    3.0000   -3.0000    0.0000 F   0  0  0  0  0  0  0  0  0  0  0  0
    1.5446   -1.8630    0.0000 F   0  0  0  0  0  0  0  0  0  0  0  0
    3.8791   -1.6080    0.0000 F   0  0  0  0  0  0  0  0  0  0  0  0
  1  2  1  0
  2  3  1  0
  2  4  1  0
  2  5  1  0
  5  6  1  0
  5  7  1  0
  7  8  2  0
  8  9  1  0
  9 10  2  0
 10 11  1  0
 10 12  1  0
 12 13  2  0
  5 14  1  0
 14 15  1  0
 14 16  1  0
 14 17  1  0
 13  7  1  0
M  END
$$$$

     RDKit          2D

 17 16  0  0  0  0  0  0  0  0999 V2000
   -1.2990    0.7500    0.0000 O   0  0  0  0  0  0  0  0  0  0  0  0
    0.0000    0.0000    0.0000 C   0  0  0  0  0  0  0  0  0  0  0  0
    1.2990    0.7500    0.0000 C   0  0  0  0  0  0  0  0  0  0  0  0
    2.5981   -0.0000    0.0000 S   0  0  0  0  0  0  0  0  0  0  0  0
    3.8971    0.7500    0.0000 C   0  0  0  0  0  0  0  0  0  0  0  0
    3.1471    2.0490    0.0000 F   0  0  0  0  0  0  0  0  0  0  0  0
    5.1962    1.5000    0.0000 F   0  0  0  0  0  0  0  0  0  0  0  0
    4.6471   -0.5490    0.0000 C   0  0  0  0  0  0  0  0  0  0  0  0
    3.3481   -1.2990    0.0000 F   0  0  0  0  0  0  0  0  0  0  0  0
    5.9462    0.2010    0.0000 F   0  0  0  0  0  0  0  0  0  0  0  0
    5.3971   -1.8481    0.0000 C   0  0  0  0  0  0  0  0  0  0  0  0
    4.0981   -2.5981    0.0000 F   0  0  0  0  0  0  0  0  0  0  0  0
    6.6962   -1.0981    0.0000 F   0  0  0  0  0  0  0  0  0  0  0  0
    6.1471   -3.1471    0.0000 C   0  0  0  0  0  0  0  0  0  0  0  0
    6.8971   -4.4462    0.0000 F   0  0  0  0  0  0  0  0  0  0  0  0
    7.4462   -2.3971    0.0000 F   0  0  0  0  0  0  0  0  0  0  0  0
    4.8481   -3.8971    0.0000 F   0  0  0  0  0  0  0  0  0  0  0  0
  1  2  1  0
  2  3  1  0
  3  4  1  0
  4  5  1  0
  5  6  1  0
  5  7  1  0
  5  8  1  0
  8  9  1  0
  8 10  1  0
  8 11  1  0
 11 12  1  0
 11 13  1  0
 11 14  1  0
 14 15  1  0
 14 16  1  0
 14 17  1  0
M  END
$$$$

     RDKit          2D

 21 20  0  0  0  0  0  0  0  0999 V2000
    0.0000    0.0000    0.0000 C   0  0  0  0  0  0  0  0  0  0  0  0
    1.2990    0.7500    0.0000 N   0  0  0  0  0  0  0  0  0  0  0  0
    2.5981   -0.0000    0.0000 C   0  0  0  0  0  0  0  0  0  0  0  0
    3.8971    0.7500    0.0000 C   0  0  0  0  0  0  0  0  0  0  0  0
    5.1962   -0.0000    0.0000 C   0  0  0  0  0  0  0  0  0  0  0  0
    6.4952    0.7500    0.0000 C   0  0  0  0  0  0  0  0  0  0  0  0
    7.7942   -0.0000    0.0000 C   0  0  0  0  0  0  0  0  0  0  0  0
    9.0933    0.7500    0.0000 C   0  0  0  0  0  0  0  0  0  0  0  0
   10.3923   -0.0000    0.0000 C   0  0  0  0  0  0  0  0  0  0  0  0
   11.1423    1.2990    0.0000 F   0  0  0  0  0  0  0  0  0  0  0  0
    9.6423   -1.2990    0.0000 F   0  0  0  0  0  0  0  0  0  0  0  0
   11.6913   -0.7500    0.0000 C   0  0  0  0  0  0  0  0  0  0  0  0
   10.9413   -2.0490    0.0000 F   0  0  0  0  0  0  0  0  0  0  0  0
   12.4413    0.5490    0.0000 F   0  0  0  0  0  0  0  0  0  0  0  0
   12.9904   -1.5000    0.0000 C   0  0  0  0  0  0  0  0  0  0  0  0
   13.7404   -0.2010    0.0000 F   0  0  0  0  0  0  0  0  0  0  0  0
   12.2404   -2.7990    0.0000 F   0  0  0  0  0  0  0  0  0  0  0  0
   14.2894   -2.2500    0.0000 C   0  0  0  0  0  0  0  0  0  0  0  0
   15.5885   -3.0000    0.0000 F   0  0  0  0  0  0  0  0  0  0  0  0
   13.5394   -3.5490    0.0000 F   0  0  0  0  0  0  0  0  0  0  0  0
   15.0394   -0.9510    0.0000 F   0  0  0  0  0  0  0  0  0  0  0  0
  1  2  1  0
  2  3  1  0
  3  4  1  0
  4  5  1  0
  5  6  1  0
  6  7  1  0
  7  8  1  0
  8  9  1  0
  9 10  1  0
  9 11  1  0
  9 12  1  0
 12 13  1  0
 12 14  1  0
 12 15  1  0
 15 16  1  0
 15 17  1  0
 15 18  1  0
 18 19  1  0
 18 20  1  0
 18 21  1  0
M  END
$$$$

     RDKit          2D

 23 22  0  0  0  0  0  0  0  0999 V2000
   -3.8971   -0.7500    0.0000 N   0  0  0  0  0  0  0  0  0  0  0  0
   -2.5981    0.0000    0.0000 N   0  0  0  0  0  0  0  0  0  0  0  0
   -1.2990    0.7500    0.0000 N   0  0  0  0  0  0  0  0  0  0  0  0
    0.0000    0.0000    0.0000 C   0  0  0  0  0  0  0  0  0  0  0  0
    1.2990    0.7500    0.0000 C   0  0  0  0  0  0  0  0  0  0  0  0
    2.0490   -0.5490    0.0000 F   0  0  0  0  0  0  0  0  0  0  0  0
    0.5490    2.0490    0.0000 F   0  0  0  0  0  0  0  0  0  0  0  0
    2.5981    1.5000    0.0000 C   0  0  0  0  0  0  0  0  0  0  0  0
    1.8481    2.7990    0.0000 F   0  0  0  0  0  0  0  0  0  0  0  0
    3.3481    0.2010    0.0000 F   0  0  0  0  0  0  0  0  0  0  0  0
    3.8971    2.2500    0.0000 C   0  0  0  0  0  0  0  0  0  0  0  0
    4.6471    0.9510    0.0000 F   0  0  0  0  0  0  0  0  0  0  0  0
    3.1471    3.5490    0.0000 F   0  0  0  0  0  0  0  0  0  0  0  0
    5.1962    3.0000    0.0000 C   0  0  0  0  0  0  0  0  0  0  0  0
    4.4462    4.2990    0.0000 F   0  0  0  0  0  0  0  0  0  0  0  0
    5.9462    1.7010    0.0000 F   0  0  0  0  0  0  0  0  0  0  0  0
    6.4952    3.7500    0.0000 C   0  0  0  0  0  0  0  0  0  0  0  0
    7.2452    2.4510    0.0000 F   0  0  0  0  0  0  0  0  0  0  0  0
    5.7452    5.0490    0.0000 F   0  0  0  0  0  0  0  0  0  0  0  0
    7.7942    4.5000    0.0000 C   0  0  0  0  0  0  0  0  0  0  0  0
    9.0933    5.2500    0.0000 F   0  0  0  0  0  0  0  0  0  0  0  0
    7.0442    5.7990    0.0000 F   0  0  0  0  0  0  0  0  0  0  0  0
    8.5442    3.2010    0.0000 F   0  0  0  0  0  0  0  0  0  0  0  0
  1  2  2  0
  2  3  2  0
  3  4  1  0
  4  5  1  0
  5  6  1  0
  5  7  1  0
  5  8  1  0
  8  9  1  0
  8 10  1  0
  8 11  1  0
 11 12  1  0
 11 13  1  0
 11 14  1  0
 14 15  1  0
 14 16  1  0
 14 17  1  0
 17 18  1  0
 17 19  1  0
 17 20  1  0
 20 21  1  0
 20 22  1  0
 20 23  1  0
M  CHG  2   1  -1   2   1
M  END
$$$$

     RDKit          2D

 18 18  0  0  0  0  0  0  0  0999 V2000
    3.0000    0.0000    0.0000 N   0  0  0  0  0  0  0  0  0  0  0  0
    1.5000    0.0000    0.0000 C   0  0  0  0  0  0  0  0  0  0  0  0
    0.7500   -1.2990    0.0000 C   0  0  0  0  0  0  0  0  0  0  0  0
   -0.7500   -1.2990    0.0000 C   0  0  0  0  0  0  0  0  0  0  0  0
   -1.5000   -2.5981    0.0000 C   0  0  0  0  0  0  0  0  0  0  0  0
   -2.7990   -1.8481    0.0000 F   0  0  0  0  0  0  0  0  0  0  0  0
   -0.2010   -3.3481    0.0000 F   0  0  0  0  0  0  0  0  0  0  0  0
   -2.2500   -3.8971    0.0000 C   0  0  0  0  0  0  0  0  0  0  0  0
   -0.9510   -4.6471    0.0000 F   0  0  0  0  0  0  0  0  0  0  0  0
   -3.5490   -3.1471    0.0000 F   0  0  0  0  0  0  0  0  0  0  0  0
   -3.0000   -5.1962    0.0000 C   0  0  0  0  0  0  0  0  0  0  0  0
   -3.7500   -6.4952    0.0000 F   0  0  0  0  0  0  0  0  0  0  0  0
   -4.2990   -4.4462    0.0000 F   0  0  0  0  0  0  0  0  0  0  0  0
   -1.7010   -5.9462    0.0000 F   0  0  0  0  0  0  0  0  0  0  0  0
   -1.5000    0.0000    0.0000 C   0  0  0  0  0  0  0  0  0  0  0  0
   -0.7500    1.2990    0.0000 C   0  0  0  0  0  0  0  0  0  0  0  0
    0.7500    1.2990    0.0000 C   0  0  0  0  0  0  0  0  0  0  0  0
    1.5000    2.5981    0.0000 O   0  0  0  0  0  0  0  0  0  0  0  0
  1  2  1  0
  2  3  2  0
  3  4  1  0
  4  5  1  0
  5  6  1  0
  5  7  1  0
  5  8  1  0
  8  9  1  0
  8 10  1  0
  8 11  1  0
 11 12  1  0
 11 13  1  0
 11 14  1  0
  4 15  2  0
 15 16  1  0
 16 17  2  0
 17 18  1  0
 17  2  1  0
M  END
$$$$

     RDKit          2D

 23 24  0  0  0  0  0  0  0  0999 V2000
    5.8450   -4.7623    0.0000 C   0  0  0  0  0  0  0  0  0  0  0  0
    4.7302   -3.7586    0.0000 O   0  0  0  0  0  0  0  0  0  0  0  0
    3.3037   -4.2221    0.0000 C   0  0  0  0  0  0  0  0  0  0  0  0
    3.9138   -5.5924    0.0000 O   0  0  0  0  0  0  0  0  0  0  0  0
    5.4055   -5.7492    0.0000 C   0  0  0  0  0  0  0  0  0  0  0  0
    2.9918   -2.7549    0.0000 S   0  0  0  0  0  0  0  0  0  0  0  0
    1.5000   -2.5981    0.0000 C   0  0  0  0  0  0  0  0  0  0  0  0
    0.7500   -1.2990    0.0000 C   0  0  0  0  0  0  0  0  0  0  0  0
    1.5000    0.0000    0.0000 C   0  0  0  0  0  0  0  0  0  0  0  0
    0.7500    1.2990    0.0000 C   0  0  0  0  0  0  0  0  0  0  0  0
   -0.7500    1.2990    0.0000 C   0  0  0  0  0  0  0  0  0  0  0  0
   -1.5000    0.0000    0.0000 C   0  0  0  0  0  0  0  0  0  0  0  0
   -0.7500   -1.2990    0.0000 C   0  0  0  0  0  0  0  0  0  0  0  0
    0.8899   -3.9684    0.0000 N   0  0  0  0  0  0  0  0  0  0  0  0
    2.0046   -4.9721    0.0000 C   0  0  0  0  0  0  0  0  0  0  0  0
    2.8863   -6.1856    0.0000 C   0  0  0  0  0  0  0  0  0  0  0  0
    3.7680   -7.3991    0.0000 F   0  0  0  0  0  0  0  0  0  0  0  0
    3.6254   -5.8870    0.0000 F   0  0  0  0  0  0  0  0  0  0  0  0
    1.7893   -7.2086    0.0000 F   0  0  0  0  0  0  0  0  0  0  0  0
    0.8899   -5.9758    0.0000 C   0  0  0  0  0  0  0  0  0  0  0  0
   -0.2248   -6.9795    0.0000 F   0  0  0  0  0  0  0  0  0  0  0  0
   -0.1138   -4.8611    0.0000 F   0  0  0  0  0  0  0  0  0  0  0  0
    1.7502   -7.2045    0.0000 F   0  0  0  0  0  0  0  0  0  0  0  0
  1  2  1  0
  2  3  1  0
  3  4  1  0
  4  5  1  0
  3  6  1  0
  6  7  1  0
  7  8  1  0
  8  9  2  0
  9 10  1  0
 10 11  2  0
 11 12  1  0
 12 13  2  0
  7 14  2  0
 14 15  1  0
 15 16  1  0
 16 17  1  0
 16 18  1  0
 16 19  1  0
 15 20  1  0
 20 21  1  0
 20 22  1  0
 20 23  1  0
 15  3  1  0
 13  8  1  0
M  END
$$$$

     RDKit          2D

 11 10  0  0  0  0  0  0  0  0999 V2000
    0.0000    0.0000    0.0000 C   0  0  0  0  0  0  0  0  0  0  0  0
    1.2990    0.7500    0.0000 N   0  0  0  0  0  0  0  0  0  0  0  0
    2.5981   -0.0000    0.0000 C   0  0  0  0  0  0  0  0  0  0  0  0
    3.8971    0.7500    0.0000 C   0  0  0  0  0  0  0  0  0  0  0  0
    5.1962    1.5000    0.0000 F   0  0  0  0  0  0  0  0  0  0  0  0
    4.6471   -0.5490    0.0000 F   0  0  0  0  0  0  0  0  0  0  0  0
    3.1471    2.0490    0.0000 F   0  0  0  0  0  0  0  0  0  0  0  0
    2.5981   -1.5000    0.0000 C   0  0  0  0  0  0  0  0  0  0  0  0
    2.5981   -3.0000    0.0000 F   0  0  0  0  0  0  0  0  0  0  0  0
    4.0981   -1.5000    0.0000 F   0  0  0  0  0  0  0  0  0  0  0  0
    1.0981   -1.5000    0.0000 F   0  0  0  0  0  0  0  0  0  0  0  0
  1  2  1  0
  2  3  2  0
  3  4  1  0
  4  5  1  0
  4  6  1  0
  4  7  1  0
  3  8  1  0
  8  9  1  0
  8 10  1  0
  8 11  1  0
M  END
$$$$

     RDKit          2D

 14 13  0  0  0  0  0  0  0  0999 V2000
    5.1962    4.5000    0.0000 F   0  0  0  0  0  0  0  0  0  0  0  0
    5.1962    3.0000    0.0000 C   0  0  0  0  0  0  0  0  0  0  0  0
    6.4952    2.2500    0.0000 F   0  0  0  0  0  0  0  0  0  0  0  0
    3.8971    2.2500    0.0000 C   0  0  0  0  0  0  0  0  0  0  0  0
    3.1471    3.5490    0.0000 F   0  0  0  0  0  0  0  0  0  0  0  0
    4.6471    0.9510    0.0000 F   0  0  0  0  0  0  0  0  0  0  0  0
    2.5981    1.5000    0.0000 C   0  0  0  0  0  0  0  0  0  0  0  0
    3.3481    0.2010    0.0000 F   0  0  0  0  0  0  0  0  0  0  0  0
    1.8481    2.7990    0.0000 F   0  0  0  0  0  0  0  0  0  0  0  0
    1.2990    0.7500    0.0000 C   0  0  0  0  0  0  0  0  0  0  0  0
    0.5490    2.0490    0.0000 F   0  0  0  0  0  0  0  0  0  0  0  0
    2.0490   -0.5490    0.0000 F   0  0  0  0  0  0  0  0  0  0  0  0
    0.0000    0.0000    0.0000 C   0  0  0  0  0  0  0  0  0  0  0  0
   -1.2990    0.7500    0.0000 Br  0  0  0  0  0  0  0  0  0  0  0  0
  1  2  1  0
  2  3  1  0
  2  4  1  0
  4  5  1  0
  4  6  1  0
  4  7  1  0
  7  8  1  0
  7  9  1  0
  7 10  1  0
 10 11  1  0
 10 12  1  0
 10 13  1  0
 13 14  1  0
M  END
$$$$

     RDKit          2D

 14 13  0  0  0  0  0  0  0  0999 V2000
    1.2990    2.2500    0.0000 O   0  0  0  0  0  0  0  0  0  0  0  0
    1.2990    0.7500    0.0000 C   0  0  0  0  0  0  0  0  0  0  0  0
    0.0000    0.0000    0.0000 C   0  0  0  0  0  0  0  0  0  0  0  0
   -1.2990    0.7500    0.0000 C   0  0  0  0  0  0  0  0  0  0  0  0
   -2.5981    1.5000    0.0000 F   0  0  0  0  0  0  0  0  0  0  0  0
   -2.0490   -0.5490    0.0000 F   0  0  0  0  0  0  0  0  0  0  0  0
   -0.5490    2.0490    0.0000 F   0  0  0  0  0  0  0  0  0  0  0  0
    2.5981   -0.0000    0.0000 C   0  0  0  0  0  0  0  0  0  0  0  0
    3.3481    1.2990    0.0000 F   0  0  0  0  0  0  0  0  0  0  0  0
    1.8481   -1.2990    0.0000 F   0  0  0  0  0  0  0  0  0  0  0  0
    3.8971   -0.7500    0.0000 C   0  0  0  0  0  0  0  0  0  0  0  0
    5.1962   -1.5000    0.0000 F   0  0  0  0  0  0  0  0  0  0  0  0
    3.1471   -2.0490    0.0000 F   0  0  0  0  0  0  0  0  0  0  0  0
    4.6471    0.5490    0.0000 F   0  0  0  0  0  0  0  0  0  0  0  0
  1  2  2  0
  2  3  1  0
  3  4  1  0
  4  5  1  0
  4  6  1  0
  4  7  1  0
  2  8  1  0
  8  9  1  0
  8 10  1  0
  8 11  1  0
 11 12  1  0
 11 13  1  0
 11 14  1  0
M  END
$$$$

     RDKit          2D

 13 13  0  0  0  0  0  0  0  0999 V2000
    3.7500   -3.8971    0.0000 F   0  0  0  0  0  0  0  0  0  0  0  0
    4.5000   -2.5981    0.0000 C   0  0  0  0  0  0  0  0  0  0  0  0
    6.0000   -2.5981    0.0000 F   0  0  0  0  0  0  0  0  0  0  0  0
    3.7500   -1.2990    0.0000 C   0  0  0  0  0  0  0  0  0  0  0  0
    5.0490   -0.5490    0.0000 F   0  0  0  0  0  0  0  0  0  0  0  0
    2.4510   -2.0490    0.0000 F   0  0  0  0  0  0  0  0  0  0  0  0
    3.0000    0.0000    0.0000 C   0  0  0  0  0  0  0  0  0  0  0  0
    1.5000    0.0000    0.0000 N   0  0  0  0  0  0  0  0  0  0  0  0
    0.7500   -1.2990    0.0000 C   0  0  0  0  0  0  0  0  0  0  0  0
   -0.7500   -1.2990    0.0000 C   0  0  0  0  0  0  0  0  0  0  0  0
   -1.5000    0.0000    0.0000 C   0  0  0  0  0  0  0  0  0  0  0  0
   -0.7500    1.2990    0.0000 C   0  0  0  0  0  0  0  0  0  0  0  0
    0.7500    1.2990    0.0000 C   0  0  0  0  0  0  0  0  0  0  0  0
  1  2  1  0
  2  3  1  0
  2  4  1  0
  4  5  1  0
  4  6  1  0
  4  7  1  0
  7  8  1  0
  8  9  1  0
  9 10  1  0
 10 11  1  0
 11 12  1  0
 12 13  1  0
 13  8  1  0
M  END
$$$$

     RDKit          2D

 18 17  0  0  0  0  0  0  0  0999 V2000
   -0.0000   -1.5000    0.0000 O   0  0  0  0  0  0  0  0  0  0  0  0
    0.0000    0.0000    0.0000 C   0  0  0  0  0  0  0  0  0  0  0  0
    1.2990    0.7500    0.0000 C   0  0  0  0  0  0  0  0  0  0  0  0
    1.1162    2.2388    0.0000 O   0  0  0  0  0  0  0  0  0  0  0  0
    2.5981   -0.0000    0.0000 C   0  0  0  0  0  0  0  0  0  0  0  0
    1.8481   -1.2990    0.0000 F   0  0  0  0  0  0  0  0  0  0  0  0
    3.8971   -0.7500    0.0000 C   0  0  0  0  0  0  0  0  0  0  0  0
    5.1962   -1.5000    0.0000 F   0  0  0  0  0  0  0  0  0  0  0  0
    3.1471   -2.0490    0.0000 F   0  0  0  0  0  0  0  0  0  0  0  0
    4.4302   -0.0426    0.0000 F   0  0  0  0  0  0  0  0  0  0  0  0
    3.3481    1.2990    0.0000 C   0  0  0  0  0  0  0  0  0  0  0  0
    4.0981    2.5981    0.0000 F   0  0  0  0  0  0  0  0  0  0  0  0
    4.1634    0.9530    0.0000 F   0  0  0  0  0  0  0  0  0  0  0  0
    2.1501    2.2018    0.0000 F   0  0  0  0  0  0  0  0  0  0  0  0
   -1.2990    0.7500    0.0000 C   0  0  0  0  0  0  0  0  0  0  0  0
   -2.5981    1.5000    0.0000 F   0  0  0  0  0  0  0  0  0  0  0  0
   -2.0490   -0.5490    0.0000 F   0  0  0  0  0  0  0  0  0  0  0  0
   -0.5490    2.0490    0.0000 F   0  0  0  0  0  0  0  0  0  0  0  0
  1  2  2  0
  2  3  1  0
  3  4  2  0
  3  5  1  0
  5  6  1  0
  5  7  1  0
  7  8  1  0
  7  9  1  0
  7 10  1  0
  5 11  1  0
 11 12  1  0
 11 13  1  0
 11 14  1  0
  2 15  1  0
 15 16  1  0
 15 17  1  0
 15 18  1  0
M  END
$$$$

     RDKit          2D

 12 11  0  0  0  0  0  0  0  0999 V2000
    1.1979   -2.4028    0.0000 O   0  0  0  0  0  0  0  0  0  0  0  0
   -0.0000   -1.5000    0.0000 O   0  0  0  0  0  0  0  0  0  0  0  0
    0.0000    0.0000    0.0000 C   0  0  0  0  0  0  0  0  0  0  0  0
    0.0000    1.5000    0.0000 O   0  0  0  0  0  0  0  0  0  0  0  0
    1.5000    0.0000    0.0000 C   0  0  0  0  0  0  0  0  0  0  0  0
    3.0000    0.0000    0.0000 F   0  0  0  0  0  0  0  0  0  0  0  0
    1.6828   -1.4888    0.0000 F   0  0  0  0  0  0  0  0  0  0  0  0
    1.5000    1.5000    0.0000 F   0  0  0  0  0  0  0  0  0  0  0  0
   -1.5000    0.0000    0.0000 C   0  0  0  0  0  0  0  0  0  0  0  0
   -3.0000    0.0000    0.0000 F   0  0  0  0  0  0  0  0  0  0  0  0
   -1.5000   -1.5000    0.0000 F   0  0  0  0  0  0  0  0  0  0  0  0
   -1.5000    1.5000    0.0000 F   0  0  0  0  0  0  0  0  0  0  0  0
  1  2  1  0
  2  3  1  0
  3  4  1  0
  3  5  1  0
  5  6  1  0
  5  7  1  0
  5  8  1  0
  3  9  1  0
  9 10  1  0
  9 11  1  0
  9 12  1  0
M  END
$$$$

     RDKit          2D

 15 14  0  0  0  0  0  0  0  0999 V2000
   -1.2990    0.7500    0.0000 F   0  0  0  0  0  0  0  0  0  0  0  0
   -0.0000    0.0000    0.0000 C   0  0  0  0  0  0  0  0  0  0  0  0
    1.2990    0.7500    0.0000 C   0  0  0  0  0  0  0  0  0  0  0  0
    2.5981   -0.0000    0.0000 C   0  0  0  0  0  0  0  0  0  0  0  0
    3.8971   -0.7500    0.0000 F   0  0  0  0  0  0  0  0  0  0  0  0
    2.1234   -1.1184    0.0000 F   0  0  0  0  0  0  0  0  0  0  0  0
    3.3481    1.2990    0.0000 F   0  0  0  0  0  0  0  0  0  0  0  0
    1.2990    2.2500    0.0000 C   0  0  0  0  0  0  0  0  0  0  0  0
    1.2990    3.7500    0.0000 F   0  0  0  0  0  0  0  0  0  0  0  0
    2.7990    2.2500    0.0000 F   0  0  0  0  0  0  0  0  0  0  0  0
   -0.2010    2.2500    0.0000 F   0  0  0  0  0  0  0  0  0  0  0  0
   -0.0000   -1.5000    0.0000 C   0  0  0  0  0  0  0  0  0  0  0  0
   -0.0000   -3.0000    0.0000 F   0  0  0  0  0  0  0  0  0  0  0  0
   -1.5000   -1.5000    0.0000 F   0  0  0  0  0  0  0  0  0  0  0  0
    1.2059   -1.6481    0.0000 F   0  0  0  0  0  0  0  0  0  0  0  0
  1  2  1  0
  2  3  2  0
  3  4  1  0
  4  5  1  0
  4  6  1  0
  4  7  1  0
  3  8  1  0
  8  9  1  0
  8 10  1  0
  8 11  1  0
  2 12  1  0
 12 13  1  0
 12 14  1  0
 12 15  1  0
M  END
$$$$

     RDKit          2D

 14 14  0  0  0  0  0  0  0  0999 V2000
    6.3481    0.2010    0.0000 F   0  0  0  0  0  0  0  0  0  0  0  0
    5.0490   -0.5490    0.0000 C   0  0  0  0  0  0  0  0  0  0  0  0
    5.7990   -1.8481    0.0000 F   0  0  0  0  0  0  0  0  0  0  0  0
    4.2990    0.7500    0.0000 F   0  0  0  0  0  0  0  0  0  0  0  0
    3.7500   -1.2990    0.0000 C   0  0  0  0  0  0  0  0  0  0  0  0
    2.4510   -2.0490    0.0000 F   0  0  0  0  0  0  0  0  0  0  0  0
    4.5000   -2.5981    0.0000 F   0  0  0  0  0  0  0  0  0  0  0  0
    3.0000    0.0000    0.0000 S   0  0  0  0  0  0  0  0  0  0  0  0
    1.5000    0.0000    0.0000 C   0  0  0  0  0  0  0  0  0  0  0  0
    0.7500   -1.2990    0.0000 C   0  0  0  0  0  0  0  0  0  0  0  0
   -0.7500   -1.2990    0.0000 C   0  0  0  0  0  0  0  0  0  0  0  0
   -1.5000    0.0000    0.0000 C   0  0  0  0  0  0  0  0  0  0  0  0
   -0.7500    1.2990    0.0000 C   0  0  0  0  0  0  0  0  0  0  0  0
    0.7500    1.2990    0.0000 C   0  0  0  0  0  0  0  0  0  0  0  0
  1  2  1  0
  2  3  1  0
  2  4  1  0
  2  5  1  0
  5  6  1  0
  5  7  1  0
  5  8  1  0
  8  9  1  0
  9 10  2  0
 10 11  1  0
 11 12  2  0
 12 13  1  0
 13 14  2  0
 14  9  1  0
M  END
$$$$

     RDKit          2D

 16 16  0  0  0  0  0  0  0  0999 V2000
    3.5260   -1.2990    0.0000 C   0  0  0  0  0  0  0  0  0  0  0  0
    2.7760    0.0000    0.0000 N   0  0  0  0  0  0  0  0  0  0  0  0
    3.5260    1.2990    0.0000 C   0  0  0  0  0  0  0  0  0  0  0  0
    1.2760    0.0000    0.0000 C   0  0  0  0  0  0  0  0  0  0  0  0
    0.3943    1.2135    0.0000 N   0  0  0  0  0  0  0  0  0  0  0  0
   -1.0323    0.7500    0.0000 C   0  0  0  0  0  0  0  0  0  0  0  0
   -2.5241    0.5932    0.0000 C   0  0  0  0  0  0  0  0  0  0  0  0
   -4.0159    0.4364    0.0000 F   0  0  0  0  0  0  0  0  0  0  0  0
   -2.3673   -0.8986    0.0000 F   0  0  0  0  0  0  0  0  0  0  0  0
   -2.7034    1.3699    0.0000 F   0  0  0  0  0  0  0  0  0  0  0  0
   -1.3442    2.2172    0.0000 C   0  0  0  0  0  0  0  0  0  0  0  0
   -1.6560    3.6844    0.0000 F   0  0  0  0  0  0  0  0  0  0  0  0
    0.1231    2.5291    0.0000 F   0  0  0  0  0  0  0  0  0  0  0  0
   -2.1383    2.1478    0.0000 F   0  0  0  0  0  0  0  0  0  0  0  0
   -1.0323   -0.7500    0.0000 Se  0  0  0  0  0  2  0  0  0  0  0  0
    0.3943   -1.2135    0.0000 Se  0  0  0  0  0  2  0  0  0  0  0  0
  1  2  1  0
  2  3  1  0
  2  4  1  0
  4  5  2  0
  5  6  1  0
  6  7  1  0
  7  8  1  0
  7  9  1  0
  7 10  1  0
  6 11  1  0
 11 12  1  0
 11 13  1  0
 11 14  1  0
  6 15  1  0
 15 16  1  0
 16  4  1  0
M  END
$$$$

     RDKit          2D

 16 15  0  0  0  0  0  0  0  0999 V2000
    0.0000    0.0000    0.0000 C   0  0  0  0  0  0  0  0  0  0  0  0
    1.2990    0.7500    0.0000 O   0  0  0  0  0  0  0  0  0  0  0  0
    2.5981   -0.0000    0.0000 P   0  0  0  0  0  0  0  0  0  0  0  0
    1.8481   -1.2990    0.0000 O   0  0  0  0  0  0  0  0  0  0  0  0
    0.3481   -1.2990    0.0000 C   0  0  0  0  0  0  0  0  0  0  0  0
    3.3481    1.2990    0.0000 O   0  0  0  0  0  0  0  0  0  0  0  0
    2.5981    2.5981    0.0000 C   0  0  0  0  0  0  0  0  0  0  0  0
    3.8971   -0.7500    0.0000 C   0  0  0  0  0  0  0  0  0  0  0  0
    3.8971   -2.2500    0.0000 C   0  0  0  0  0  0  0  0  0  0  0  0
    3.8971   -3.7500    0.0000 F   0  0  0  0  0  0  0  0  0  0  0  0
    5.3971   -2.2500    0.0000 F   0  0  0  0  0  0  0  0  0  0  0  0
    2.3971   -2.2500    0.0000 F   0  0  0  0  0  0  0  0  0  0  0  0
    5.1962   -0.0000    0.0000 C   0  0  0  0  0  0  0  0  0  0  0  0
    6.4952    0.7500    0.0000 F   0  0  0  0  0  0  0  0  0  0  0  0
    5.9462   -1.2990    0.0000 F   0  0  0  0  0  0  0  0  0  0  0  0
    4.4462    1.2990    0.0000 F   0  0  0  0  0  0  0  0  0  0  0  0
  1  2  1  0
  2  3  1  0
  3  4  1  0
  4  5  1  0
  3  6  1  0
  6  7  1  0
  3  8  2  0
  8  9  1  0
  9 10  1  0
  9 11  1  0
  9 12  1  0
  8 13  1  0
 13 14  1  0
 13 15  1  0
 13 16  1  0
M  END
$$$$

     RDKit          2D

 15 14  0  0  0  0  0  0  0  0999 V2000
    0.0000    0.0000    0.0000 C   0  0  0  0  0  0  0  0  0  0  0  0
   -0.0000   -1.5000    0.0000 C   0  0  0  0  0  0  0  0  0  0  0  0
   -0.0000   -3.0000    0.0000 C   0  0  0  0  0  0  0  0  0  0  0  0
    1.5000   -3.0000    0.0000 F   0  0  0  0  0  0  0  0  0  0  0  0
   -1.5000   -3.0000    0.0000 F   0  0  0  0  0  0  0  0  0  0  0  0
   -0.0000   -4.5000    0.0000 C   0  0  0  0  0  0  0  0  0  0  0  0
   -1.5000   -4.5000    0.0000 F   0  0  0  0  0  0  0  0  0  0  0  0
    1.5000   -4.5000    0.0000 F   0  0  0  0  0  0  0  0  0  0  0  0
   -0.0000   -6.0000    0.0000 C   0  0  0  0  0  0  0  0  0  0  0  0
    1.5000   -6.0000    0.0000 F   0  0  0  0  0  0  0  0  0  0  0  0
   -1.5000   -6.0000    0.0000 F   0  0  0  0  0  0  0  0  0  0  0  0
   -0.0000   -7.5000    0.0000 C   0  0  0  0  0  0  0  0  0  0  0  0
   -0.0000   -9.0000    0.0000 F   0  0  0  0  0  0  0  0  0  0  0  0
   -1.5000   -7.5000    0.0000 F   0  0  0  0  0  0  0  0  0  0  0  0
    1.5000   -7.5000    0.0000 F   0  0  0  0  0  0  0  0  0  0  0  0
  1  2  3  0
  2  3  1  0
  3  4  1  0
  3  5  1  0
  3  6  1  0
  6  7  1  0
  6  8  1  0
  6  9  1  0
  9 10  1  0
  9 11  1  0
  9 12  1  0
 12 13  1  0
 12 14  1  0
 12 15  1  0
M  END
$$$$

     RDKit          2D

 18 19  0  0  0  0  0  0  0  0999 V2000
    2.7760    0.0000    0.0000 O   0  0  0  0  0  0  0  0  0  0  0  0
    1.2760    0.0000    0.0000 C   0  0  0  0  0  0  0  0  0  0  0  0
    0.3943    1.2135    0.0000 C   0  0  0  0  0  0  0  0  0  0  0  0
    0.7062    2.6807    0.0000 C   0  0  0  0  0  0  0  0  0  0  0  0
    2.1328    3.1443    0.0000 F   0  0  0  0  0  0  0  0  0  0  0  0
   -0.4086    3.6844    0.0000 C   0  0  0  0  0  0  0  0  0  0  0  0
   -0.0967    5.1517    0.0000 F   0  0  0  0  0  0  0  0  0  0  0  0
   -1.8351    3.2209    0.0000 C   0  0  0  0  0  0  0  0  0  0  0  0
   -2.9499    4.2246    0.0000 F   0  0  0  0  0  0  0  0  0  0  0  0
   -2.1470    1.7537    0.0000 C   0  0  0  0  0  0  0  0  0  0  0  0
   -3.5736    1.2902    0.0000 F   0  0  0  0  0  0  0  0  0  0  0  0
   -1.0323    0.7500    0.0000 C   0  0  0  0  0  0  0  0  0  0  0  0
   -1.0323   -0.7500    0.0000 C   0  0  0  0  0  0  0  0  0  0  0  0
   -1.3442   -2.2172    0.0000 F   0  0  0  0  0  0  0  0  0  0  0  0
   -2.5241   -0.5932    0.0000 F   0  0  0  0  0  0  0  0  0  0  0  0
    0.3943   -1.2135    0.0000 C   0  0  0  0  0  0  0  0  0  0  0  0
    1.6933   -1.9635    0.0000 F   0  0  0  0  0  0  0  0  0  0  0  0
   -0.2158   -2.5838    0.0000 F   0  0  0  0  0  0  0  0  0  0  0  0
  1  2  2  0
  2  3  1  0
  3  4  2  0
  4  5  1  0
  4  6  1  0
  6  7  1  0
  6  8  2  0
  8  9  1  0
  8 10  1  0
 10 11  1  0
 10 12  2  0
 12 13  1  0
 13 14  1  0
 13 15  1  0
 13 16  1  0
 16 17  1  0
 16 18  1  0
 16  2  1  0
 12  3  1  0
M  END
$$$$

     RDKit          2D

 21 20  0  0  0  0  0  0  0  0999 V2000
   -0.0000   -3.0000    0.0000 F   0  0  0  0  0  0  0  0  0  0  0  0
   -0.0000   -1.5000    0.0000 C   0  0  0  0  0  0  0  0  0  0  0  0
    1.2059   -1.6481    0.0000 F   0  0  0  0  0  0  0  0  0  0  0  0
   -1.5000   -1.5000    0.0000 F   0  0  0  0  0  0  0  0  0  0  0  0
   -0.0000    0.0000    0.0000 C   0  0  0  0  0  0  0  0  0  0  0  0
    1.2990    0.7500    0.0000 C   0  0  0  0  0  0  0  0  0  0  0  0
    1.2990    2.2500    0.0000 C   0  0  0  0  0  0  0  0  0  0  0  0
    1.2990    3.7500    0.0000 F   0  0  0  0  0  0  0  0  0  0  0  0
    0.0931    2.3981    0.0000 F   0  0  0  0  0  0  0  0  0  0  0  0
    2.7990    2.2500    0.0000 F   0  0  0  0  0  0  0  0  0  0  0  0
    2.5981   -0.0000    0.0000 C   0  0  0  0  0  0  0  0  0  0  0  0
    2.1234   -1.1184    0.0000 F   0  0  0  0  0  0  0  0  0  0  0  0
    3.3481    1.2990    0.0000 F   0  0  0  0  0  0  0  0  0  0  0  0
    3.8971   -0.7500    0.0000 C   0  0  0  0  0  0  0  0  0  0  0  0
    5.1962   -1.5000    0.0000 F   0  0  0  0  0  0  0  0  0  0  0  0
    4.6471    0.5490    0.0000 F   0  0  0  0  0  0  0  0  0  0  0  0
    3.1471   -2.0490    0.0000 F   0  0  0  0  0  0  0  0  0  0  0  0
   -1.2990    0.7500    0.0000 C   0  0  0  0  0  0  0  0  0  0  0  0
   -2.5981    1.5000    0.0000 F   0  0  0  0  0  0  0  0  0  0  0  0
   -2.0490   -0.5490    0.0000 F   0  0  0  0  0  0  0  0  0  0  0  0
   -0.8243    1.8684    0.0000 F   0  0  0  0  0  0  0  0  0  0  0  0
  1  2  1  0
  2  3  1  0
  2  4  1  0
  2  5  1  0
  5  6  2  0
  6  7  1  0
  7  8  1  0
  7  9  1  0
  7 10  1  0
  6 11  1  0
 11 12  1  0
 11 13  1  0
 11 14  1  0
 14 15  1  0
 14 16  1  0
 14 17  1  0
  5 18  1  0
 18 19  1  0
 18 20  1  0
 18 21  1  0
M  END
$$$$

     RDKit          2D

 13 13  0  0  0  0  0  0  0  0999 V2000
    3.5702    0.6724    0.0000 O   0  0  0  0  0  0  0  0  0  0  0  0
    2.1213    1.0607    0.0000 N   0  0  0  0  0  0  0  0  0  0  0  0
    1.0607    0.0000    0.0000 C   0  0  0  0  0  0  0  0  0  0  0  0
    2.1213   -1.0607    0.0000 F   0  0  0  0  0  0  0  0  0  0  0  0
   -0.0000   -1.0607    0.0000 C   0  0  0  0  0  0  0  0  0  0  0  0
    1.0607   -2.1213    0.0000 F   0  0  0  0  0  0  0  0  0  0  0  0
   -1.0607   -2.1213    0.0000 F   0  0  0  0  0  0  0  0  0  0  0  0
   -1.0607    0.0000    0.0000 C   0  0  0  0  0  0  0  0  0  0  0  0
   -2.1213   -1.0607    0.0000 F   0  0  0  0  0  0  0  0  0  0  0  0
   -2.1213    1.0607    0.0000 F   0  0  0  0  0  0  0  0  0  0  0  0
    0.0000    1.0607    0.0000 C   0  0  0  0  0  0  0  0  0  0  0  0
   -1.0607    2.1213    0.0000 F   0  0  0  0  0  0  0  0  0  0  0  0
    1.0607    2.1213    0.0000 F   0  0  0  0  0  0  0  0  0  0  0  0
  1  2  2  0
  2  3  1  0
  3  4  1  0
  3  5  1  0
  5  6  1  0
  5  7  1  0
  5  8  1  0
  8  9  1  0
  8 10  1  0
  8 11  1  0
 11 12  1  0
 11 13  1  0
 11  3  1  0
M  END
$$$$

     RDKit          2D

 16 15  0  0  0  0  0  0  0  0999 V2000
    0.0000    0.0000    0.0000 C   0  0  0  0  0  0  0  0  0  0  0  0
    1.2990    0.7500    0.0000 C   0  0  0  0  0  0  0  0  0  0  0  0
    2.5981   -0.0000    0.0000 C   0  0  0  0  0  0  0  0  0  0  0  0
    3.8971    0.7500    0.0000 C   0  0  0  0  0  0  0  0  0  0  0  0
    5.1962    1.5000    0.0000 C   0  0  0  0  0  0  0  0  0  0  0  0
    6.4952    2.2500    0.0000 F   0  0  0  0  0  0  0  0  0  0  0  0
    4.8501    2.3153    0.0000 F   0  0  0  0  0  0  0  0  0  0  0  0
    5.7292    0.7926    0.0000 F   0  0  0  0  0  0  0  0  0  0  0  0
    4.6471   -0.5490    0.0000 C   0  0  0  0  0  0  0  0  0  0  0  0
    5.3971   -1.8481    0.0000 F   0  0  0  0  0  0  0  0  0  0  0  0
    5.4624   -0.2030    0.0000 F   0  0  0  0  0  0  0  0  0  0  0  0
    3.3481   -1.2990    0.0000 F   0  0  0  0  0  0  0  0  0  0  0  0
    3.1471    2.0490    0.0000 C   0  0  0  0  0  0  0  0  0  0  0  0
    2.3971    3.3481    0.0000 F   0  0  0  0  0  0  0  0  0  0  0  0
    3.8545    2.5821    0.0000 F   0  0  0  0  0  0  0  0  0  0  0  0
    1.7052    1.6357    0.0000 F   0  0  0  0  0  0  0  0  0  0  0  0
  1  2  2  0
  2  3  1  0
  3  4  1  0
  4  5  1  0
  5  6  1  0
  5  7  1  0
  5  8  1  0
  4  9  1  0
  9 10  1  0
  9 11  1  0
  9 12  1  0
  4 13  1  0
 13 14  1  0
 13 15  1  0
 13 16  1  0
M  END
$$$$

     RDKit          2D

 36 36  0  0  0  0  0  0  0  0999 V2000
    3.7500    1.2990    0.0000 O   0  0  0  0  0  0  0  0  0  0  0  0
    3.0000    0.0000    0.0000 C   0  0  0  0  0  0  0  0  0  0  0  0
    1.5000    0.0000    0.0000 C   0  0  0  0  0  0  0  0  0  0  0  0
    0.7500   -1.2990    0.0000 C   0  0  0  0  0  0  0  0  0  0  0  0
   -0.7500   -1.2990    0.0000 C   0  0  0  0  0  0  0  0  0  0  0  0
   -1.5000    0.0000    0.0000 C   0  0  0  0  0  0  0  0  0  0  0  0
   -3.0000    0.0000    0.0000 Br  0  0  0  0  0  0  0  0  0  0  0  0
   -0.7500    1.2990    0.0000 C   0  0  0  0  0  0  0  0  0  0  0  0
    0.7500    1.2990    0.0000 C   0  0  0  0  0  0  0  0  0  0  0  0
    3.7500   -1.2990    0.0000 C   0  0  0  0  0  0  0  0  0  0  0  0
    2.4510   -2.0490    0.0000 F   0  0  0  0  0  0  0  0  0  0  0  0
    5.0490   -0.5490    0.0000 O   0  0  0  0  0  0  0  0  0  0  0  0
    6.3481   -1.2990    0.0000 C   0  0  0  0  0  0  0  0  0  0  0  0
    5.7620   -2.6798    0.0000 F   0  0  0  0  0  0  0  0  0  0  0  0
    7.0981    0.0000    0.0000 F   0  0  0  0  0  0  0  0  0  0  0  0
    7.6471   -2.0490    0.0000 C   0  0  0  0  0  0  0  0  0  0  0  0
    6.8971   -3.3481    0.0000 F   0  0  0  0  0  0  0  0  0  0  0  0
    8.3971   -0.7500    0.0000 O   0  0  0  0  0  0  0  0  0  0  0  0
    9.8971   -0.7500    0.0000 C   0  0  0  0  0  0  0  0  0  0  0  0
    9.9943   -1.5412    0.0000 F   0  0  0  0  0  0  0  0  0  0  0  0
    9.8971    0.7500    0.0000 F   0  0  0  0  0  0  0  0  0  0  0  0
   11.3971   -0.7500    0.0000 C   0  0  0  0  0  0  0  0  0  0  0  0
   11.3971    0.7500    0.0000 F   0  0  0  0  0  0  0  0  0  0  0  0
   11.3971   -2.2500    0.0000 F   0  0  0  0  0  0  0  0  0  0  0  0
   12.8971   -0.7500    0.0000 C   0  0  0  0  0  0  0  0  0  0  0  0
   14.3971   -0.7500    0.0000 F   0  0  0  0  0  0  0  0  0  0  0  0
   12.8971   -2.2500    0.0000 F   0  0  0  0  0  0  0  0  0  0  0  0
   12.8971    0.7500    0.0000 F   0  0  0  0  0  0  0  0  0  0  0  0
    8.9462   -2.7990    0.0000 C   0  0  0  0  0  0  0  0  0  0  0  0
   10.2452   -3.5490    0.0000 F   0  0  0  0  0  0  0  0  0  0  0  0
    9.5657   -2.2974    0.0000 F   0  0  0  0  0  0  0  0  0  0  0  0
    8.1962   -4.0981    0.0000 F   0  0  0  0  0  0  0  0  0  0  0  0
    4.5000   -2.5981    0.0000 C   0  0  0  0  0  0  0  0  0  0  0  0
    5.2500   -3.8971    0.0000 F   0  0  0  0  0  0  0  0  0  0  0  0
    3.2010   -3.3481    0.0000 F   0  0  0  0  0  0  0  0  0  0  0  0
    5.9816   -2.3635    0.0000 F   0  0  0  0  0  0  0  0  0  0  0  0
  1  2  2  0
  2  3  1  0
  3  4  2  0
  4  5  1  0
  5  6  2  0
  6  7  1  0
  6  8  1  0
  8  9  2  0
  2 10  1  0
 10 11  1  0
 10 12  1  0
 12 13  1  0
 13 14  1  0
 13 15  1  0
 13 16  1  0
 16 17  1  0
 16 18  1  0
 18 19  1  0
 19 20  1  0
 19 21  1  0
 19 22  1  0
 22 23  1  0
 22 24  1  0
 22 25  1  0
 25 26  1  0
 25 27  1  0
 25 28  1  0
 16 29  1  0
 29 30  1  0
 29 31  1  0
 29 32  1  0
 10 33  1  0
 33 34  1  0
 33 35  1  0
 33 36  1  0
  9  3  1  0
M  END
$$$$

     RDKit          2D

 18 18  0  0  0  0  0  0  0  0999 V2000
    3.5260    1.2990    0.0000 O   0  0  0  0  0  0  0  0  0  0  0  0
    2.7760    0.0000    0.0000 C   0  0  0  0  0  0  0  0  0  0  0  0
    3.5260   -1.2990    0.0000 C   0  0  0  0  0  0  0  0  0  0  0  0
    5.0260   -1.2990    0.0000 C   0  0  0  0  0  0  0  0  0  0  0  0
    5.7760    0.0000    0.0000 O   0  0  0  0  0  0  0  0  0  0  0  0
    5.7760   -2.5981    0.0000 C   0  0  0  0  0  0  0  0  0  0  0  0
    7.0750   -1.8481    0.0000 F   0  0  0  0  0  0  0  0  0  0  0  0
    4.4769   -3.3481    0.0000 F   0  0  0  0  0  0  0  0  0  0  0  0
    6.5260   -3.8971    0.0000 O   0  0  0  0  0  0  0  0  0  0  0  0
    5.7760   -5.1962    0.0000 C   0  0  0  0  0  0  0  0  0  0  0  0
    5.0260   -6.4952    0.0000 F   0  0  0  0  0  0  0  0  0  0  0  0
    7.0750   -5.9462    0.0000 F   0  0  0  0  0  0  0  0  0  0  0  0
    4.4769   -4.4462    0.0000 F   0  0  0  0  0  0  0  0  0  0  0  0
    1.2760    0.0000    0.0000 C   0  0  0  0  0  0  0  0  0  0  0  0
    0.3943    1.2135    0.0000 C   0  0  0  0  0  0  0  0  0  0  0  0
   -1.0323    0.7500    0.0000 C   0  0  0  0  0  0  0  0  0  0  0  0
   -1.0323   -0.7500    0.0000 C   0  0  0  0  0  0  0  0  0  0  0  0
    0.3943   -1.2135    0.0000 S   0  0  0  0  0  0  0  0  0  0  0  0
  1  2  2  0
  2  3  1  0
  3  4  1  0
  4  5  2  0
  4  6  1  0
  6  7  1  0
  6  8  1  0
  6  9  1  0
  9 10  1  0
 10 11  1  0
 10 12  1  0
 10 13  1  0
  2 14  1  0
 14 15  2  0
 15 16  1  0
 16 17  2  0
 17 18  1  0
 18 14  1  0
M  END
$$$$

     RDKit          2D

 14 14  0  0  0  0  0  0  0  0999 V2000
    3.7500   -3.8971    0.0000 F   0  0  0  0  0  0  0  0  0  0  0  0
    4.5000   -2.5981    0.0000 C   0  0  0  0  0  0  0  0  0  0  0  0
    6.0000   -2.5981    0.0000 F   0  0  0  0  0  0  0  0  0  0  0  0
    3.7500   -1.2990    0.0000 C   0  0  0  0  0  0  0  0  0  0  0  0
    2.4510   -2.0490    0.0000 F   0  0  0  0  0  0  0  0  0  0  0  0
    5.0490   -0.5490    0.0000 F   0  0  0  0  0  0  0  0  0  0  0  0
    3.0000    0.0000    0.0000 O   0  0  0  0  0  0  0  0  0  0  0  0
    1.5000    0.0000    0.0000 C   0  0  0  0  0  0  0  0  0  0  0  0
    0.7500   -1.2990    0.0000 C   0  0  0  0  0  0  0  0  0  0  0  0
   -0.7500   -1.2990    0.0000 C   0  0  0  0  0  0  0  0  0  0  0  0
   -1.5000    0.0000    0.0000 C   0  0  0  0  0  0  0  0  0  0  0  0
   -3.0000    0.0000    0.0000 Cl  0  0  0  0  0  0  0  0  0  0  0  0
   -0.7500    1.2990    0.0000 C   0  0  0  0  0  0  0  0  0  0  0  0
    0.7500    1.2990    0.0000 C   0  0  0  0  0  0  0  0  0  0  0  0
  1  2  1  0
  2  3  1  0
  2  4  1  0
  4  5  1  0
  4  6  1  0
  4  7  1  0
  7  8  1  0
  8  9  2  0
  9 10  1  0
 10 11  2  0
 11 12  1  0
 11 13  1  0
 13 14  2  0
 14  8  1  0
M  END
$$$$

     RDKit          2D

 12 11  0  0  0  0  0  0  0  0999 V2000
    0.0000    0.0000    0.0000 C   0  0  0  0  0  0  0  0  0  0  0  0
    1.2990    0.7500    0.0000 O   0  0  0  0  0  0  0  0  0  0  0  0
    2.5981   -0.0000    0.0000 C   0  0  0  0  0  0  0  0  0  0  0  0
    3.8971    0.7500    0.0000 C   0  0  0  0  0  0  0  0  0  0  0  0
    5.1962   -0.0000    0.0000 O   0  0  0  0  0  0  0  0  0  0  0  0
    6.4952    0.7500    0.0000 C   0  0  0  0  0  0  0  0  0  0  0  0
    7.7942   -0.0000    0.0000 C   0  0  0  0  0  0  0  0  0  0  0  0
    8.5442    1.2990    0.0000 F   0  0  0  0  0  0  0  0  0  0  0  0
    7.0442   -1.2990    0.0000 F   0  0  0  0  0  0  0  0  0  0  0  0
    9.0933   -0.7500    0.0000 C   0  0  0  0  0  0  0  0  0  0  0  0
    9.0933   -2.2500    0.0000 F   0  0  0  0  0  0  0  0  0  0  0  0
   10.3923   -0.0000    0.0000 F   0  0  0  0  0  0  0  0  0  0  0  0
  1  2  1  0
  2  3  1  0
  3  4  1  0
  4  5  1  0
  5  6  1  0
  6  7  1  0
  7  8  1  0
  7  9  1  0
  7 10  1  0
 10 11  1  0
 10 12  1  0
M  END
$$$$

     RDKit          2D

 15 15  0  0  0  0  0  0  0  0999 V2000
    3.7500    1.2990    0.0000 O   0  0  0  0  0  0  0  0  0  0  0  0
    3.0000    0.0000    0.0000 C   0  0  0  0  0  0  0  0  0  0  0  0
    1.5000    0.0000    0.0000 C   0  0  0  0  0  0  0  0  0  0  0  0
    0.7500   -1.2990    0.0000 C   0  0  0  0  0  0  0  0  0  0  0  0
   -0.7500   -1.2990    0.0000 C   0  0  0  0  0  0  0  0  0  0  0  0
   -1.5000    0.0000    0.0000 C   0  0  0  0  0  0  0  0  0  0  0  0
   -0.7500    1.2990    0.0000 C   0  0  0  0  0  0  0  0  0  0  0  0
    0.7500    1.2990    0.0000 C   0  0  0  0  0  0  0  0  0  0  0  0
    1.5000    2.5981    0.0000 O   0  0  0  0  0  0  0  0  0  0  0  0
    3.7500   -1.2990    0.0000 C   0  0  0  0  0  0  0  0  0  0  0  0
    3.0000   -2.5981    0.0000 F   0  0  0  0  0  0  0  0  0  0  0  0
    5.2500   -1.2990    0.0000 C   0  0  0  0  0  0  0  0  0  0  0  0
    6.7500   -1.2990    0.0000 F   0  0  0  0  0  0  0  0  0  0  0  0
    5.2500   -2.7990    0.0000 F   0  0  0  0  0  0  0  0  0  0  0  0
    5.2500    0.2010    0.0000 F   0  0  0  0  0  0  0  0  0  0  0  0
  1  2  2  0
  2  3  1  0
  3  4  2  0
  4  5  1  0
  5  6  2  0
  6  7  1  0
  7  8  2  0
  8  9  1  0
  2 10  1  0
 10 11  1  0
 10 12  1  0
 12 13  1  0
 12 14  1  0
 12 15  1  0
  8  3  1  0
M  END
$$$$

     RDKit          2D

 25 25  0  0  0  0  0  0  0  0999 V2000
   12.0000    0.0000    0.0000 F   0  0  0  0  0  0  0  0  0  0  0  0
   10.5000    0.0000    0.0000 C   0  0  0  0  0  0  0  0  0  0  0  0
   10.5000    1.5000    0.0000 F   0  0  0  0  0  0  0  0  0  0  0  0
   10.5000   -1.5000    0.0000 F   0  0  0  0  0  0  0  0  0  0  0  0
    9.0000    0.0000    0.0000 C   0  0  0  0  0  0  0  0  0  0  0  0
    9.0000   -1.5000    0.0000 F   0  0  0  0  0  0  0  0  0  0  0  0
    9.0000    1.5000    0.0000 F   0  0  0  0  0  0  0  0  0  0  0  0
    7.5000    0.0000    0.0000 C   0  0  0  0  0  0  0  0  0  0  0  0
    7.5000    1.5000    0.0000 F   0  0  0  0  0  0  0  0  0  0  0  0
    7.5000   -1.5000    0.0000 F   0  0  0  0  0  0  0  0  0  0  0  0
    6.0000    0.0000    0.0000 C   0  0  0  0  0  0  0  0  0  0  0  0
    6.0000   -1.5000    0.0000 F   0  0  0  0  0  0  0  0  0  0  0  0
    6.0000    1.5000    0.0000 F   0  0  0  0  0  0  0  0  0  0  0  0
    4.5000    0.0000    0.0000 C   0  0  0  0  0  0  0  0  0  0  0  0
    4.5000    1.5000    0.0000 F   0  0  0  0  0  0  0  0  0  0  0  0
    4.5000   -1.5000    0.0000 F   0  0  0  0  0  0  0  0  0  0  0  0
    3.0000    0.0000    0.0000 C   0  0  0  0  0  0  0  0  0  0  0  0
    3.0000   -1.5000    0.0000 F   0  0  0  0  0  0  0  0  0  0  0  0
    3.0000    1.5000    0.0000 F   0  0  0  0  0  0  0  0  0  0  0  0
    1.5000    0.0000    0.0000 C   0  0  0  0  0  0  0  0  0  0  0  0
    0.7500   -1.2990    0.0000 C   0  0  0  0  0  0  0  0  0  0  0  0
   -0.7500   -1.2990    0.0000 C   0  0  0  0  0  0  0  0  0  0  0  0
   -1.5000    0.0000    0.0000 C   0  0  0  0  0  0  0  0  0  0  0  0
   -0.7500    1.2990    0.0000 C   0  0  0  0  0  0  0  0  0  0  0  0
    0.7500    1.2990    0.0000 C   0  0  0  0  0  0  0  0  0  0  0  0
  1  2  1  0
  2  3  1  0
  2  4  1  0
  2  5  1  0
  5  6  1  0
  5  7  1  0
  5  8  1  0
  8  9  1  0
  8 10  1  0
  8 11  1  0
 11 12  1  0
 11 13  1  0
 11 14  1  0
 14 15  1  0
 14 16  1  0
 14 17  1  0
 17 18  1  0
 17 19  1  0
 17 20  1  0
 20 21  2  0
 21 22  1  0
 22 23  2  0
 23 24  1  0
 24 25  2  0
 25 20  1  0
M  END
$$$$

     RDKit          2D

 13 12  0  0  0  0  0  0  0  0999 V2000
    0.0000    0.0000    0.0000 C   0  0  0  0  0  0  0  0  0  0  0  0
    1.2990    0.7500    0.0000 O   0  0  0  0  0  0  0  0  0  0  0  0
    2.5981   -0.0000    0.0000 C   0  0  0  0  0  0  0  0  0  0  0  0
    2.5981   -1.5000    0.0000 O   0  0  0  0  0  0  0  0  0  0  0  0
    3.8971    0.7500    0.0000 C   0  0  0  0  0  0  0  0  0  0  0  0
    4.6471   -0.5490    0.0000 F   0  0  0  0  0  0  0  0  0  0  0  0
    3.1471    2.0490    0.0000 F   0  0  0  0  0  0  0  0  0  0  0  0
    5.1962    1.5000    0.0000 C   0  0  0  0  0  0  0  0  0  0  0  0
    5.9462    0.2010    0.0000 F   0  0  0  0  0  0  0  0  0  0  0  0
    4.4462    2.7990    0.0000 F   0  0  0  0  0  0  0  0  0  0  0  0
    6.4952    2.2500    0.0000 C   0  0  0  0  0  0  0  0  0  0  0  0
    7.7942    1.5000    0.0000 O   0  0  0  0  0  0  0  0  0  0  0  0
    6.4952    3.7500    0.0000 F   0  0  0  0  0  0  0  0  0  0  0  0
  1  2  1  0
  2  3  1  0
  3  4  2  0
  3  5  1  0
  5  6  1  0
  5  7  1  0
  5  8  1  0
  8  9  1  0
  8 10  1  0
  8 11  1  0
 11 12  2  0
 11 13  1  0
M  END
$$$$

     RDKit          2D

 13 12  0  0  0  0  0  0  0  0999 V2000
    0.0000    0.0000    0.0000 C   0  0  0  0  0  0  0  0  0  0  0  0
    1.2990    0.7500    0.0000 N   0  0  0  0  0  0  0  0  0  0  0  0
    2.5981   -0.0000    0.0000 C   0  0  0  0  0  0  0  0  0  0  0  0
    3.8971    0.7500    0.0000 C   0  0  0  0  0  0  0  0  0  0  0  0
    3.1471    2.0490    0.0000 O   0  0  0  0  0  0  0  0  0  0  0  0
    5.1962    1.5000    0.0000 C   0  0  0  0  0  0  0  0  0  0  0  0
    6.4952    2.2500    0.0000 F   0  0  0  0  0  0  0  0  0  0  0  0
    4.4462    2.7990    0.0000 F   0  0  0  0  0  0  0  0  0  0  0  0
    5.7292    0.7926    0.0000 F   0  0  0  0  0  0  0  0  0  0  0  0
    4.6471   -0.5490    0.0000 C   0  0  0  0  0  0  0  0  0  0  0  0
    5.3971   -1.8481    0.0000 F   0  0  0  0  0  0  0  0  0  0  0  0
    3.3481   -1.2990    0.0000 F   0  0  0  0  0  0  0  0  0  0  0  0
    5.4624   -0.2030    0.0000 F   0  0  0  0  0  0  0  0  0  0  0  0
  1  2  1  0
  2  3  1  0
  3  4  1  0
  4  5  1  0
  4  6  1  0
  6  7  1  0
  6  8  1  0
  6  9  1  0
  4 10  1  0
 10 11  1  0
 10 12  1  0
 10 13  1  0
M  END
$$$$
